*SPEF "ieee 1481-1999"
*DESIGN "tiny_user_project"
*DATE "11:11:11 Fri 11 11, 1111"
*VENDOR "OpenRCX"
*PROGRAM "Parallel Extraction"
*VERSION "1.0"
*DESIGN_FLOW "NAME_SCOPE LOCAL" "PIN_CAP NONE"
*DIVIDER /
*DELIMITER :
*BUS_DELIMITER []
*T_UNIT 1 NS
*C_UNIT 1 PF
*R_UNIT 1 OHM
*L_UNIT 1 HENRY

*NAME_MAP
*1 io_in[0]
*2 io_in[10]
*3 io_in[11]
*4 io_in[12]
*5 io_in[13]
*6 io_in[14]
*7 io_in[15]
*8 io_in[16]
*9 io_in[17]
*10 io_in[18]
*11 io_in[19]
*12 io_in[1]
*13 io_in[20]
*14 io_in[21]
*15 io_in[22]
*16 io_in[23]
*17 io_in[24]
*18 io_in[25]
*19 io_in[26]
*20 io_in[27]
*21 io_in[28]
*22 io_in[29]
*23 io_in[2]
*24 io_in[30]
*25 io_in[31]
*26 io_in[32]
*27 io_in[33]
*28 io_in[34]
*29 io_in[35]
*30 io_in[36]
*31 io_in[37]
*32 io_in[3]
*33 io_in[4]
*34 io_in[5]
*35 io_in[6]
*36 io_in[7]
*37 io_in[8]
*38 io_in[9]
*39 net136
*40 net146
*41 net147
*42 net148
*43 net149
*44 net150
*45 net151
*46 net152
*47 net153
*48 net154
*49 net155
*50 net137
*51 net156
*52 net157
*53 net158
*54 net159
*55 net160
*56 net161
*57 net162
*58 net163
*59 net164
*60 net165
*61 net138
*62 net166
*63 net167
*64 net168
*65 net169
*66 net170
*67 net171
*68 net172
*69 net173
*70 net139
*71 net140
*72 net141
*73 net142
*74 net143
*75 net144
*76 net145
*77 net106
*78 net116
*79 net117
*80 net118
*81 net119
*82 net120
*83 net121
*84 io_out[16]
*85 io_out[17]
*86 io_out[18]
*87 io_out[19]
*88 net107
*89 io_out[20]
*90 io_out[21]
*91 io_out[22]
*92 io_out[23]
*93 net122
*94 net123
*95 net124
*96 net125
*97 net126
*98 net127
*99 net108
*100 net128
*101 net129
*102 net130
*103 net131
*104 net132
*105 net133
*106 net134
*107 net135
*108 net109
*109 net110
*110 net111
*111 net112
*112 net113
*113 net114
*114 net115
*115 la_data_in[0]
*116 la_data_in[10]
*117 la_data_in[11]
*118 la_data_in[12]
*119 la_data_in[13]
*120 la_data_in[14]
*121 la_data_in[15]
*122 la_data_in[16]
*123 la_data_in[17]
*124 la_data_in[18]
*125 la_data_in[19]
*126 la_data_in[1]
*127 la_data_in[20]
*128 la_data_in[21]
*129 la_data_in[22]
*130 la_data_in[23]
*131 la_data_in[24]
*132 la_data_in[25]
*133 la_data_in[26]
*134 la_data_in[27]
*135 la_data_in[28]
*136 la_data_in[29]
*137 la_data_in[2]
*138 la_data_in[30]
*139 la_data_in[31]
*140 la_data_in[32]
*141 la_data_in[33]
*142 la_data_in[34]
*143 la_data_in[35]
*144 la_data_in[36]
*145 la_data_in[37]
*146 la_data_in[38]
*147 la_data_in[39]
*148 la_data_in[3]
*149 la_data_in[40]
*150 la_data_in[41]
*151 la_data_in[42]
*152 la_data_in[43]
*153 la_data_in[44]
*154 la_data_in[45]
*155 la_data_in[46]
*156 la_data_in[47]
*157 la_data_in[48]
*158 la_data_in[49]
*159 la_data_in[4]
*160 la_data_in[50]
*161 la_data_in[51]
*162 la_data_in[52]
*163 la_data_in[53]
*164 la_data_in[54]
*165 la_data_in[55]
*166 la_data_in[56]
*167 la_data_in[57]
*168 la_data_in[58]
*169 la_data_in[59]
*170 la_data_in[5]
*171 la_data_in[60]
*172 la_data_in[61]
*173 la_data_in[62]
*174 la_data_in[63]
*175 la_data_in[6]
*176 la_data_in[7]
*177 la_data_in[8]
*178 la_data_in[9]
*179 net42
*180 net52
*181 net53
*182 net54
*183 net55
*184 net56
*185 net57
*186 net58
*187 net59
*188 net60
*189 net61
*190 net43
*191 net62
*192 net63
*193 net64
*194 net65
*195 net66
*196 net67
*197 net68
*198 net69
*199 net70
*200 net71
*201 net44
*202 net72
*203 net73
*204 net74
*205 net75
*206 net76
*207 net77
*208 net78
*209 net79
*210 net80
*211 net81
*212 net45
*213 net82
*214 net83
*215 net84
*216 net85
*217 net86
*218 net87
*219 net88
*220 net89
*221 net90
*222 net91
*223 net46
*224 net92
*225 net93
*226 net94
*227 net95
*228 net96
*229 net97
*230 net98
*231 net99
*232 net100
*233 net101
*234 net47
*235 net102
*236 net103
*237 net104
*238 net105
*239 net48
*240 net49
*241 net50
*242 net51
*243 la_oenb[0]
*244 la_oenb[10]
*245 la_oenb[11]
*246 la_oenb[12]
*247 la_oenb[13]
*248 la_oenb[14]
*249 la_oenb[15]
*250 la_oenb[16]
*251 la_oenb[17]
*252 la_oenb[18]
*253 la_oenb[19]
*254 la_oenb[1]
*255 la_oenb[20]
*256 la_oenb[21]
*257 la_oenb[22]
*258 la_oenb[23]
*259 la_oenb[24]
*260 la_oenb[25]
*261 la_oenb[26]
*262 la_oenb[27]
*263 la_oenb[28]
*264 la_oenb[29]
*265 la_oenb[2]
*266 la_oenb[30]
*267 la_oenb[31]
*268 la_oenb[32]
*269 la_oenb[33]
*270 la_oenb[34]
*271 la_oenb[35]
*272 la_oenb[36]
*273 la_oenb[37]
*274 la_oenb[38]
*275 la_oenb[39]
*276 la_oenb[3]
*277 la_oenb[40]
*278 la_oenb[41]
*279 la_oenb[42]
*280 la_oenb[43]
*281 la_oenb[44]
*282 la_oenb[45]
*283 la_oenb[46]
*284 la_oenb[47]
*285 la_oenb[48]
*286 la_oenb[49]
*287 la_oenb[4]
*288 la_oenb[50]
*289 la_oenb[51]
*290 la_oenb[52]
*291 la_oenb[53]
*292 la_oenb[54]
*293 la_oenb[55]
*294 la_oenb[56]
*295 la_oenb[57]
*296 la_oenb[58]
*297 la_oenb[59]
*298 la_oenb[5]
*299 la_oenb[60]
*300 la_oenb[61]
*301 la_oenb[62]
*302 la_oenb[63]
*303 la_oenb[6]
*304 la_oenb[7]
*305 la_oenb[8]
*306 la_oenb[9]
*307 user_clock2
*308 net174
*309 net175
*310 net176
*313 wb_clk_i
*314 wb_rst_i
*315 net177
*316 wbs_adr_i[0]
*317 wbs_adr_i[10]
*318 wbs_adr_i[11]
*319 wbs_adr_i[12]
*320 wbs_adr_i[13]
*321 wbs_adr_i[14]
*322 wbs_adr_i[15]
*323 wbs_adr_i[16]
*324 wbs_adr_i[17]
*325 wbs_adr_i[18]
*326 wbs_adr_i[19]
*327 wbs_adr_i[1]
*328 wbs_adr_i[20]
*329 wbs_adr_i[21]
*330 wbs_adr_i[22]
*331 wbs_adr_i[23]
*332 wbs_adr_i[24]
*333 wbs_adr_i[25]
*334 wbs_adr_i[26]
*335 wbs_adr_i[27]
*336 wbs_adr_i[28]
*337 wbs_adr_i[29]
*338 wbs_adr_i[2]
*339 wbs_adr_i[30]
*340 wbs_adr_i[31]
*341 wbs_adr_i[3]
*342 wbs_adr_i[4]
*343 wbs_adr_i[5]
*344 wbs_adr_i[6]
*345 wbs_adr_i[7]
*346 wbs_adr_i[8]
*347 wbs_adr_i[9]
*348 wbs_cyc_i
*349 wbs_dat_i[0]
*350 wbs_dat_i[10]
*351 wbs_dat_i[11]
*352 wbs_dat_i[12]
*353 wbs_dat_i[13]
*354 wbs_dat_i[14]
*355 wbs_dat_i[15]
*356 wbs_dat_i[16]
*357 wbs_dat_i[17]
*358 wbs_dat_i[18]
*359 wbs_dat_i[19]
*360 wbs_dat_i[1]
*361 wbs_dat_i[20]
*362 wbs_dat_i[21]
*363 wbs_dat_i[22]
*364 wbs_dat_i[23]
*365 wbs_dat_i[24]
*366 wbs_dat_i[25]
*367 wbs_dat_i[26]
*368 wbs_dat_i[27]
*369 wbs_dat_i[28]
*370 wbs_dat_i[29]
*371 wbs_dat_i[2]
*372 wbs_dat_i[30]
*373 wbs_dat_i[31]
*374 wbs_dat_i[3]
*375 wbs_dat_i[4]
*376 wbs_dat_i[5]
*377 wbs_dat_i[6]
*378 wbs_dat_i[7]
*379 wbs_dat_i[8]
*380 wbs_dat_i[9]
*381 net178
*382 net188
*383 net189
*384 net190
*385 net191
*386 net192
*387 net193
*388 net194
*389 net195
*390 net196
*391 net197
*392 net179
*393 net198
*394 net199
*395 net200
*396 net201
*397 net202
*398 net203
*399 net204
*400 net205
*401 net206
*402 net207
*403 net180
*404 net208
*405 net209
*406 net181
*407 net182
*408 net183
*409 net184
*410 net185
*411 net186
*412 net187
*413 wbs_sel_i[0]
*414 wbs_sel_i[1]
*415 wbs_sel_i[2]
*416 wbs_sel_i[3]
*417 wbs_stb_i
*418 wbs_we_i
*419 _000_
*420 _001_
*421 _002_
*422 _003_
*423 _004_
*424 _005_
*425 _006_
*426 _007_
*427 _008_
*428 _009_
*429 _010_
*430 _011_
*431 _012_
*432 _013_
*433 _014_
*434 _015_
*435 _016_
*436 _017_
*437 _018_
*438 _019_
*439 _020_
*440 _021_
*441 _022_
*442 _023_
*443 _024_
*444 _025_
*445 _026_
*446 _027_
*447 _028_
*448 _029_
*449 _030_
*450 _031_
*451 _032_
*452 _033_
*453 _034_
*454 _035_
*455 _036_
*456 _037_
*457 _038_
*458 _039_
*459 _040_
*460 _041_
*461 _042_
*462 _043_
*463 _044_
*464 _045_
*465 _046_
*466 _047_
*467 _048_
*468 _049_
*469 _050_
*470 _051_
*471 _052_
*472 _053_
*473 _054_
*474 _055_
*475 _056_
*476 _057_
*477 _058_
*478 _059_
*479 _060_
*480 _061_
*481 _062_
*482 _063_
*483 _064_
*484 _065_
*485 _066_
*486 _067_
*487 _068_
*488 _069_
*489 _070_
*490 _071_
*491 _072_
*492 _073_
*493 _074_
*494 _075_
*495 _076_
*496 _077_
*497 _078_
*498 _079_
*499 _080_
*500 _081_
*501 _082_
*502 _083_
*503 _084_
*504 _085_
*505 _086_
*506 _087_
*507 mod\.flipflop10\.d
*508 mod\.flipflop10\.q
*509 mod\.flipflop11\.d
*510 mod\.flipflop11\.q
*511 mod\.flipflop12\.d
*512 mod\.flipflop12\.q
*513 mod\.flipflop13\.d
*514 mod\.flipflop13\.q
*515 mod\.flipflop14\.d
*516 mod\.flipflop14\.q
*517 mod\.flipflop15\.q
*518 mod\.flipflop16\.q
*519 mod\.flipflop17\.q
*520 mod\.flipflop18\.d
*521 mod\.flipflop18\.q
*522 mod\.flipflop19\.d
*523 mod\.flipflop19\.q
*524 mod\.flipflop2\.q
*525 mod\.flipflop20\.d
*526 mod\.flipflop20\.q
*527 mod\.flipflop21\.q
*528 mod\.flipflop22\.q
*529 mod\.flipflop23\.q
*530 mod\.flipflop24\.q
*531 mod\.flipflop25\.q
*532 mod\.flipflop26\.q
*533 mod\.flipflop27\.q
*534 mod\.flipflop28\.q
*535 mod\.flipflop29\.q
*536 mod\.flipflop30\.q
*537 mod\.flipflop31\.q
*538 mod\.flipflop32\.q
*539 mod\.flipflop33\.q
*540 mod\.flipflop34\.q
*541 mod\.flipflop35\.q
*542 mod\.flipflop36\.q
*543 mod\.flipflop37\.q
*544 mod\.flipflop38\.q
*545 mod\.flipflop39\.q
*546 mod\.flipflop4\.d
*547 mod\.flipflop40\.q
*548 mod\.flipflop41\.q
*549 mod\.flipflop42\.q
*550 mod\.flipflop43\.q
*551 mod\.flipflop44\.q
*552 mod\.flipflop45\.q
*553 mod\.flipflop46\.q
*554 mod\.flipflop47\.q
*555 mod\.flipflop48\.q
*556 mod\.flipflop49\.q
*557 mod\.flipflop5\.d
*558 mod\.flipflop50\.q
*559 mod\.flipflop51\.q
*560 mod\.flipflop52\.q
*561 mod\.flipflop53\.q
*562 mod\.flipflop54\.q
*563 mod\.flipflop55\.q
*564 mod\.flipflop56\.q
*565 mod\.flipflop57\.q
*566 mod\.flipflop58\.q
*567 mod\.flipflop59\.q
*568 mod\.flipflop60\.q
*569 mod\.flipflop61\.q
*570 mod\.flipflop65\.q
*571 net1
*572 net10
*573 net11
*574 net12
*575 net13
*576 net14
*577 net15
*578 net16
*579 net17
*580 net18
*581 net19
*582 net2
*583 net20
*584 net21
*585 net22
*586 net23
*587 net24
*588 net25
*589 net26
*590 net27
*591 net28
*592 net29
*593 net3
*594 net30
*595 net31
*596 net32
*597 net33
*598 net34
*599 net35
*600 net36
*601 net37
*602 net38
*603 net39
*604 net4
*605 net40
*606 net41
*607 net5
*608 net6
*609 net7
*610 net8
*611 net9
*612 ANTENNA__088__I
*613 ANTENNA__089__I
*614 ANTENNA__090__I
*615 ANTENNA__091__I
*616 ANTENNA__092__I
*617 ANTENNA__093__I0
*618 ANTENNA__093__S
*619 ANTENNA__094__A1
*620 ANTENNA__095__I
*621 ANTENNA__096__I
*622 ANTENNA__097__I
*623 ANTENNA__098__I0
*624 ANTENNA__098__I1
*625 ANTENNA__098__S
*626 ANTENNA__099__A1
*627 ANTENNA__099__A2
*628 ANTENNA__100__I
*629 ANTENNA__101__I
*630 ANTENNA__102__I
*631 ANTENNA__103__I0
*632 ANTENNA__103__I1
*633 ANTENNA__103__S
*634 ANTENNA__104__A1
*635 ANTENNA__104__A2
*636 ANTENNA__105__I
*637 ANTENNA__106__I
*638 ANTENNA__107__I0
*639 ANTENNA__107__I1
*640 ANTENNA__107__S
*641 ANTENNA__108__I
*642 ANTENNA__109__A1
*643 ANTENNA__109__A2
*644 ANTENNA__109__B
*645 ANTENNA__110__A1
*646 ANTENNA__110__A2
*647 ANTENNA__110__B2
*648 ANTENNA__111__I0
*649 ANTENNA__111__I1
*650 ANTENNA__111__S
*651 ANTENNA__112__A1
*652 ANTENNA__112__A2
*653 ANTENNA__113__I0
*654 ANTENNA__113__I1
*655 ANTENNA__113__S
*656 ANTENNA__114__A1
*657 ANTENNA__115__I0
*658 ANTENNA__115__I1
*659 ANTENNA__115__S
*660 ANTENNA__116__A1
*661 ANTENNA__116__A2
*662 ANTENNA__117__I0
*663 ANTENNA__117__I1
*664 ANTENNA__117__S
*665 ANTENNA__118__A1
*666 ANTENNA__118__A2
*667 ANTENNA__118__B
*668 ANTENNA__119__A1
*669 ANTENNA__119__A2
*670 ANTENNA__119__A3
*671 ANTENNA__119__B1
*672 ANTENNA__119__B2
*673 ANTENNA__120__I0
*674 ANTENNA__120__I1
*675 ANTENNA__120__S
*676 ANTENNA__121__A1
*677 ANTENNA__121__A2
*678 ANTENNA__122__I0
*679 ANTENNA__122__I1
*680 ANTENNA__122__S
*681 ANTENNA__123__A1
*682 ANTENNA__123__A2
*683 ANTENNA__124__I0
*684 ANTENNA__124__I1
*685 ANTENNA__124__S
*686 ANTENNA__125__A1
*687 ANTENNA__125__A2
*688 ANTENNA__126__I0
*689 ANTENNA__126__I1
*690 ANTENNA__126__S
*691 ANTENNA__127__A1
*692 ANTENNA__127__A2
*693 ANTENNA__127__B
*694 ANTENNA__128__A1
*695 ANTENNA__128__A2
*696 ANTENNA__128__A3
*697 ANTENNA__128__B1
*698 ANTENNA__128__B2
*699 ANTENNA__129__I0
*700 ANTENNA__129__I1
*701 ANTENNA__129__S
*702 ANTENNA__130__A1
*703 ANTENNA__130__A2
*704 ANTENNA__131__I0
*705 ANTENNA__131__I1
*706 ANTENNA__131__S
*707 ANTENNA__132__A1
*708 ANTENNA__132__A2
*709 ANTENNA__133__I0
*710 ANTENNA__133__I1
*711 ANTENNA__133__S
*712 ANTENNA__134__A1
*713 ANTENNA__135__I1
*714 ANTENNA__135__S
*715 ANTENNA__136__A1
*716 ANTENNA__136__A2
*717 ANTENNA__136__B
*718 ANTENNA__137__A1
*719 ANTENNA__137__A2
*720 ANTENNA__137__A3
*721 ANTENNA__137__B2
*722 ANTENNA__138__I
*723 ANTENNA__139__I
*724 ANTENNA__140__I
*725 ANTENNA__141__I0
*726 ANTENNA__141__I1
*727 ANTENNA__141__S
*728 ANTENNA__142__A1
*729 ANTENNA__142__A2
*730 ANTENNA__143__I
*731 ANTENNA__144__I
*732 ANTENNA__145__I0
*733 ANTENNA__145__S
*734 ANTENNA__146__A1
*735 ANTENNA__146__A2
*736 ANTENNA__147__I
*737 ANTENNA__148__I
*738 ANTENNA__149__I0
*739 ANTENNA__149__I1
*740 ANTENNA__149__S
*741 ANTENNA__150__A1
*742 ANTENNA__150__A2
*743 ANTENNA__151__I
*744 ANTENNA__152__I
*745 ANTENNA__153__I0
*746 ANTENNA__153__I1
*747 ANTENNA__153__S
*748 ANTENNA__154__I
*749 ANTENNA__155__A1
*750 ANTENNA__155__A2
*751 ANTENNA__155__B
*752 ANTENNA__156__A1
*753 ANTENNA__156__A3
*754 ANTENNA__156__B1
*755 ANTENNA__156__B2
*756 ANTENNA__157__I0
*757 ANTENNA__157__I1
*758 ANTENNA__157__S
*759 ANTENNA__158__A1
*760 ANTENNA__158__A2
*761 ANTENNA__159__I0
*762 ANTENNA__159__I1
*763 ANTENNA__159__S
*764 ANTENNA__160__A1
*765 ANTENNA__161__I0
*766 ANTENNA__161__I1
*767 ANTENNA__161__S
*768 ANTENNA__162__A1
*769 ANTENNA__163__I0
*770 ANTENNA__163__I1
*771 ANTENNA__163__S
*772 ANTENNA__164__A1
*773 ANTENNA__164__B
*774 ANTENNA__165__A1
*775 ANTENNA__165__A2
*776 ANTENNA__165__A3
*777 ANTENNA__165__B1
*778 ANTENNA__165__B2
*779 ANTENNA__166__I0
*780 ANTENNA__166__I1
*781 ANTENNA__166__S
*782 ANTENNA__167__A1
*783 ANTENNA__167__A2
*784 ANTENNA__168__I0
*785 ANTENNA__168__I1
*786 ANTENNA__168__S
*787 ANTENNA__169__A1
*788 ANTENNA__169__A2
*789 ANTENNA__170__I0
*790 ANTENNA__170__I1
*791 ANTENNA__170__S
*792 ANTENNA__171__A1
*793 ANTENNA__171__A2
*794 ANTENNA__172__I0
*795 ANTENNA__172__I1
*796 ANTENNA__172__S
*797 ANTENNA__173__A1
*798 ANTENNA__173__B
*799 ANTENNA__174__A1
*800 ANTENNA__174__B1
*801 ANTENNA__174__B2
*802 ANTENNA__175__I0
*803 ANTENNA__175__I1
*804 ANTENNA__175__S
*805 ANTENNA__176__A1
*806 ANTENNA__177__I0
*807 ANTENNA__177__S
*808 ANTENNA__178__A1
*809 ANTENNA__178__A2
*810 ANTENNA__179__I0
*811 ANTENNA__179__I1
*812 ANTENNA__179__S
*813 ANTENNA__180__A1
*814 ANTENNA__180__A2
*815 ANTENNA__181__I0
*816 ANTENNA__181__I1
*817 ANTENNA__181__S
*818 ANTENNA__182__A1
*819 ANTENNA__182__B
*820 ANTENNA__183__A1
*821 ANTENNA__183__A2
*822 ANTENNA__183__A3
*823 ANTENNA__183__B1
*824 ANTENNA__184__CLK
*825 ANTENNA__184__D
*826 ANTENNA__185__CLK
*827 ANTENNA__185__D
*828 ANTENNA__186__CLK
*829 ANTENNA__187__CLK
*830 ANTENNA__187__D
*831 ANTENNA__188__CLK
*832 ANTENNA__188__D
*833 ANTENNA__189__CLK
*834 ANTENNA__189__D
*835 ANTENNA__190__CLK
*836 ANTENNA__190__D
*837 ANTENNA__191__CLK
*838 ANTENNA__191__D
*839 ANTENNA__192__CLK
*840 ANTENNA__192__D
*841 ANTENNA__193__CLK
*842 ANTENNA__193__D
*843 ANTENNA__194__CLK
*844 ANTENNA__194__D
*845 ANTENNA__195__CLK
*846 ANTENNA__195__D
*847 ANTENNA__196__CLK
*848 ANTENNA__196__D
*849 ANTENNA__197__CLK
*850 ANTENNA__197__D
*851 ANTENNA__198__CLK
*852 ANTENNA__199__CLK
*853 ANTENNA__199__D
*854 ANTENNA__200__CLK
*855 ANTENNA__200__D
*856 ANTENNA__201__CLK
*857 ANTENNA__201__D
*858 ANTENNA__202__CLK
*859 ANTENNA__202__D
*860 ANTENNA__203__CLK
*861 ANTENNA__204__CLK
*862 ANTENNA__204__D
*863 ANTENNA__206__CLK
*864 ANTENNA__206__D
*865 ANTENNA__207__CLK
*866 ANTENNA__207__D
*867 ANTENNA__208__CLK
*868 ANTENNA__208__D
*869 ANTENNA__209__CLK
*870 ANTENNA__209__D
*871 ANTENNA__210__CLK
*872 ANTENNA__210__D
*873 ANTENNA__211__CLK
*874 ANTENNA__211__D
*875 ANTENNA__212__CLK
*876 ANTENNA__212__D
*877 ANTENNA__213__CLK
*878 ANTENNA__213__D
*879 ANTENNA__214__CLK
*880 ANTENNA__215__CLK
*881 ANTENNA__215__D
*882 ANTENNA__216__CLK
*883 ANTENNA__216__D
*884 ANTENNA__217__CLK
*885 ANTENNA__217__D
*886 ANTENNA__218__CLK
*887 ANTENNA__218__D
*888 ANTENNA__219__CLK
*889 ANTENNA__219__D
*890 ANTENNA__220__CLK
*891 ANTENNA__220__D
*892 ANTENNA__221__CLK
*893 ANTENNA__221__D
*894 ANTENNA__222__CLK
*895 ANTENNA__222__D
*896 ANTENNA__223__CLK
*897 ANTENNA__223__D
*898 ANTENNA__224__CLK
*899 ANTENNA__224__D
*900 ANTENNA__225__CLK
*901 ANTENNA__225__D
*902 ANTENNA__226__CLK
*903 ANTENNA__226__D
*904 ANTENNA__227__CLK
*905 ANTENNA__227__D
*906 ANTENNA__228__CLK
*907 ANTENNA__228__D
*908 ANTENNA__229__CLK
*909 ANTENNA__229__D
*910 ANTENNA__230__CLK
*911 ANTENNA__230__D
*912 ANTENNA__231__CLK
*913 ANTENNA__231__D
*914 ANTENNA__232__CLK
*915 ANTENNA__232__D
*916 ANTENNA__233__CLK
*917 ANTENNA__233__D
*918 ANTENNA__234__CLK
*919 ANTENNA__234__D
*920 ANTENNA__235__CLK
*921 ANTENNA__235__D
*922 ANTENNA__236__CLK
*923 ANTENNA__236__D
*924 ANTENNA__237__CLK
*925 ANTENNA__237__D
*926 ANTENNA__238__CLK
*927 ANTENNA__238__D
*928 ANTENNA__239__CLK
*929 ANTENNA__239__D
*930 ANTENNA__240__CLK
*931 ANTENNA__240__D
*932 ANTENNA__241__CLK
*933 ANTENNA__241__D
*934 ANTENNA__242__CLK
*935 ANTENNA__242__D
*936 ANTENNA__243__CLK
*937 ANTENNA__243__D
*938 ANTENNA__244__CLK
*939 ANTENNA__244__D
*940 ANTENNA__245__CLK
*941 ANTENNA__245__D
*942 ANTENNA__246__CLK
*943 ANTENNA__246__D
*944 ANTENNA__247__CLK
*945 ANTENNA__247__D
*946 ANTENNA_fanout14_I
*947 ANTENNA_fanout15_I
*948 ANTENNA_fanout16_I
*949 ANTENNA_fanout17_I
*950 ANTENNA_fanout18_I
*951 ANTENNA_fanout19_I
*952 ANTENNA_fanout20_I
*953 ANTENNA_fanout21_I
*954 ANTENNA_fanout22_I
*955 ANTENNA_fanout23_I
*956 ANTENNA_fanout24_I
*957 ANTENNA_fanout25_I
*958 ANTENNA_fanout26_I
*959 ANTENNA_fanout27_I
*960 ANTENNA_fanout28_I
*961 ANTENNA_fanout29_I
*962 ANTENNA_fanout30_I
*963 ANTENNA_fanout31_I
*964 ANTENNA_fanout32_I
*965 ANTENNA_fanout33_I
*966 ANTENNA_fanout34_I
*967 ANTENNA_fanout35_I
*968 ANTENNA_fanout36_I
*969 ANTENNA_fanout37_I
*970 ANTENNA_fanout38_I
*971 ANTENNA_fanout39_I
*972 ANTENNA_fanout41_I
*973 ANTENNA_input1_I
*974 ANTENNA_input2_I
*975 ANTENNA_input3_I
*976 ANTENNA_input4_I
*977 ANTENNA_input5_I
*978 ANTENNA_output10_I
*979 ANTENNA_output11_I
*980 ANTENNA_output12_I
*981 ANTENNA_output13_I
*982 ANTENNA_output6_I
*983 ANTENNA_output7_I
*984 ANTENNA_output8_I
*985 ANTENNA_output9_I
*986 FILLER_0_101
*987 FILLER_0_1011
*988 FILLER_0_1014
*989 FILLER_0_1017
*990 FILLER_0_1032
*991 FILLER_0_1038
*992 FILLER_0_1044
*993 FILLER_0_107
*994 FILLER_0_11
*995 FILLER_0_115
*996 FILLER_0_119
*997 FILLER_0_135
*998 FILLER_0_139
*999 FILLER_0_142
*1000 FILLER_0_174
*1001 FILLER_0_177
*1002 FILLER_0_2
*1003 FILLER_0_209
*1004 FILLER_0_212
*1005 FILLER_0_228
*1006 FILLER_0_233
*1007 FILLER_0_237
*1008 FILLER_0_239
*1009 FILLER_0_244
*1010 FILLER_0_247
*1011 FILLER_0_251
*1012 FILLER_0_257
*1013 FILLER_0_263
*1014 FILLER_0_27
*1015 FILLER_0_279
*1016 FILLER_0_282
*1017 FILLER_0_287
*1018 FILLER_0_299
*1019 FILLER_0_317
*1020 FILLER_0_323
*1021 FILLER_0_329
*1022 FILLER_0_345
*1023 FILLER_0_349
*1024 FILLER_0_352
*1025 FILLER_0_368
*1026 FILLER_0_37
*1027 FILLER_0_372
*1028 FILLER_0_377
*1029 FILLER_0_387
*1030 FILLER_0_395
*1031 FILLER_0_411
*1032 FILLER_0_419
*1033 FILLER_0_422
*1034 FILLER_0_426
*1035 FILLER_0_431
*1036 FILLER_0_447
*1037 FILLER_0_449
*1038 FILLER_0_454
*1039 FILLER_0_457
*1040 FILLER_0_462
*1041 FILLER_0_466
*1042 FILLER_0_468
*1043 FILLER_0_473
*1044 FILLER_0_485
*1045 FILLER_0_489
*1046 FILLER_0_492
*1047 FILLER_0_508
*1048 FILLER_0_516
*1049 FILLER_0_521
*1050 FILLER_0_527
*1051 FILLER_0_53
*1052 FILLER_0_543
*1053 FILLER_0_551
*1054 FILLER_0_559
*1055 FILLER_0_562
*1056 FILLER_0_59
*1057 FILLER_0_594
*1058 FILLER_0_597
*1059 FILLER_0_6
*1060 FILLER_0_602
*1061 FILLER_0_608
*1062 FILLER_0_612
*1063 FILLER_0_617
*1064 FILLER_0_625
*1065 FILLER_0_629
*1066 FILLER_0_632
*1067 FILLER_0_65
*1068 FILLER_0_664
*1069 FILLER_0_667
*1070 FILLER_0_672
*1071 FILLER_0_676
*1072 FILLER_0_678
*1073 FILLER_0_683
*1074 FILLER_0_69
*1075 FILLER_0_695
*1076 FILLER_0_699
*1077 FILLER_0_702
*1078 FILLER_0_718
*1079 FILLER_0_72
*1080 FILLER_0_726
*1081 FILLER_0_731
*1082 FILLER_0_737
*1083 FILLER_0_749
*1084 FILLER_0_761
*1085 FILLER_0_769
*1086 FILLER_0_77
*1087 FILLER_0_772
*1088 FILLER_0_777
*1089 FILLER_0_793
*1090 FILLER_0_801
*1091 FILLER_0_807
*1092 FILLER_0_827
*1093 FILLER_0_835
*1094 FILLER_0_839
*1095 FILLER_0_842
*1096 FILLER_0_874
*1097 FILLER_0_877
*1098 FILLER_0_885
*1099 FILLER_0_893
*1100 FILLER_0_909
*1101 FILLER_0_912
*1102 FILLER_0_93
*1103 FILLER_0_944
*1104 FILLER_0_947
*1105 FILLER_0_952
*1106 FILLER_0_960
*1107 FILLER_0_964
*1108 FILLER_0_966
*1109 FILLER_0_971
*1110 FILLER_0_979
*1111 FILLER_0_982
*1112 FILLER_0_987
*1113 FILLER_0_995
*1114 FILLER_100_101
*1115 FILLER_100_1024
*1116 FILLER_100_1028
*1117 FILLER_100_1031
*1118 FILLER_100_1039
*1119 FILLER_100_1043
*1120 FILLER_100_105
*1121 FILLER_100_108
*1122 FILLER_100_172
*1123 FILLER_100_176
*1124 FILLER_100_179
*1125 FILLER_100_2
*1126 FILLER_100_243
*1127 FILLER_100_247
*1128 FILLER_100_250
*1129 FILLER_100_314
*1130 FILLER_100_318
*1131 FILLER_100_321
*1132 FILLER_100_34
*1133 FILLER_100_37
*1134 FILLER_100_385
*1135 FILLER_100_389
*1136 FILLER_100_392
*1137 FILLER_100_456
*1138 FILLER_100_460
*1139 FILLER_100_463
*1140 FILLER_100_527
*1141 FILLER_100_531
*1142 FILLER_100_534
*1143 FILLER_100_598
*1144 FILLER_100_602
*1145 FILLER_100_605
*1146 FILLER_100_669
*1147 FILLER_100_673
*1148 FILLER_100_676
*1149 FILLER_100_740
*1150 FILLER_100_744
*1151 FILLER_100_747
*1152 FILLER_100_811
*1153 FILLER_100_815
*1154 FILLER_100_818
*1155 FILLER_100_882
*1156 FILLER_100_886
*1157 FILLER_100_889
*1158 FILLER_100_953
*1159 FILLER_100_957
*1160 FILLER_100_960
*1161 FILLER_101_1028
*1162 FILLER_101_1036
*1163 FILLER_101_1044
*1164 FILLER_101_137
*1165 FILLER_101_141
*1166 FILLER_101_144
*1167 FILLER_101_2
*1168 FILLER_101_208
*1169 FILLER_101_212
*1170 FILLER_101_215
*1171 FILLER_101_279
*1172 FILLER_101_283
*1173 FILLER_101_286
*1174 FILLER_101_350
*1175 FILLER_101_354
*1176 FILLER_101_357
*1177 FILLER_101_421
*1178 FILLER_101_425
*1179 FILLER_101_428
*1180 FILLER_101_492
*1181 FILLER_101_496
*1182 FILLER_101_499
*1183 FILLER_101_563
*1184 FILLER_101_567
*1185 FILLER_101_570
*1186 FILLER_101_634
*1187 FILLER_101_638
*1188 FILLER_101_641
*1189 FILLER_101_66
*1190 FILLER_101_70
*1191 FILLER_101_705
*1192 FILLER_101_709
*1193 FILLER_101_712
*1194 FILLER_101_73
*1195 FILLER_101_776
*1196 FILLER_101_780
*1197 FILLER_101_783
*1198 FILLER_101_847
*1199 FILLER_101_851
*1200 FILLER_101_854
*1201 FILLER_101_918
*1202 FILLER_101_922
*1203 FILLER_101_925
*1204 FILLER_101_989
*1205 FILLER_101_993
*1206 FILLER_101_996
*1207 FILLER_102_101
*1208 FILLER_102_1024
*1209 FILLER_102_1028
*1210 FILLER_102_1031
*1211 FILLER_102_1039
*1212 FILLER_102_1043
*1213 FILLER_102_105
*1214 FILLER_102_108
*1215 FILLER_102_13
*1216 FILLER_102_172
*1217 FILLER_102_176
*1218 FILLER_102_179
*1219 FILLER_102_2
*1220 FILLER_102_243
*1221 FILLER_102_247
*1222 FILLER_102_250
*1223 FILLER_102_29
*1224 FILLER_102_314
*1225 FILLER_102_318
*1226 FILLER_102_321
*1227 FILLER_102_33
*1228 FILLER_102_37
*1229 FILLER_102_385
*1230 FILLER_102_389
*1231 FILLER_102_392
*1232 FILLER_102_456
*1233 FILLER_102_460
*1234 FILLER_102_463
*1235 FILLER_102_527
*1236 FILLER_102_531
*1237 FILLER_102_534
*1238 FILLER_102_598
*1239 FILLER_102_602
*1240 FILLER_102_605
*1241 FILLER_102_669
*1242 FILLER_102_673
*1243 FILLER_102_676
*1244 FILLER_102_7
*1245 FILLER_102_740
*1246 FILLER_102_744
*1247 FILLER_102_747
*1248 FILLER_102_811
*1249 FILLER_102_815
*1250 FILLER_102_818
*1251 FILLER_102_882
*1252 FILLER_102_886
*1253 FILLER_102_889
*1254 FILLER_102_953
*1255 FILLER_102_957
*1256 FILLER_102_960
*1257 FILLER_103_1028
*1258 FILLER_103_1036
*1259 FILLER_103_1044
*1260 FILLER_103_137
*1261 FILLER_103_141
*1262 FILLER_103_144
*1263 FILLER_103_2
*1264 FILLER_103_208
*1265 FILLER_103_212
*1266 FILLER_103_215
*1267 FILLER_103_279
*1268 FILLER_103_283
*1269 FILLER_103_286
*1270 FILLER_103_350
*1271 FILLER_103_354
*1272 FILLER_103_357
*1273 FILLER_103_421
*1274 FILLER_103_425
*1275 FILLER_103_428
*1276 FILLER_103_492
*1277 FILLER_103_496
*1278 FILLER_103_499
*1279 FILLER_103_563
*1280 FILLER_103_567
*1281 FILLER_103_570
*1282 FILLER_103_634
*1283 FILLER_103_638
*1284 FILLER_103_641
*1285 FILLER_103_66
*1286 FILLER_103_70
*1287 FILLER_103_705
*1288 FILLER_103_709
*1289 FILLER_103_712
*1290 FILLER_103_73
*1291 FILLER_103_776
*1292 FILLER_103_780
*1293 FILLER_103_783
*1294 FILLER_103_847
*1295 FILLER_103_851
*1296 FILLER_103_854
*1297 FILLER_103_918
*1298 FILLER_103_922
*1299 FILLER_103_925
*1300 FILLER_103_989
*1301 FILLER_103_993
*1302 FILLER_103_996
*1303 FILLER_104_101
*1304 FILLER_104_1024
*1305 FILLER_104_1028
*1306 FILLER_104_1031
*1307 FILLER_104_1039
*1308 FILLER_104_1043
*1309 FILLER_104_105
*1310 FILLER_104_108
*1311 FILLER_104_17
*1312 FILLER_104_172
*1313 FILLER_104_176
*1314 FILLER_104_179
*1315 FILLER_104_2
*1316 FILLER_104_21
*1317 FILLER_104_243
*1318 FILLER_104_247
*1319 FILLER_104_250
*1320 FILLER_104_29
*1321 FILLER_104_314
*1322 FILLER_104_318
*1323 FILLER_104_321
*1324 FILLER_104_33
*1325 FILLER_104_37
*1326 FILLER_104_385
*1327 FILLER_104_389
*1328 FILLER_104_392
*1329 FILLER_104_456
*1330 FILLER_104_460
*1331 FILLER_104_463
*1332 FILLER_104_527
*1333 FILLER_104_531
*1334 FILLER_104_534
*1335 FILLER_104_598
*1336 FILLER_104_602
*1337 FILLER_104_605
*1338 FILLER_104_669
*1339 FILLER_104_673
*1340 FILLER_104_676
*1341 FILLER_104_740
*1342 FILLER_104_744
*1343 FILLER_104_747
*1344 FILLER_104_811
*1345 FILLER_104_815
*1346 FILLER_104_818
*1347 FILLER_104_882
*1348 FILLER_104_886
*1349 FILLER_104_889
*1350 FILLER_104_953
*1351 FILLER_104_957
*1352 FILLER_104_960
*1353 FILLER_105_1028
*1354 FILLER_105_1044
*1355 FILLER_105_137
*1356 FILLER_105_141
*1357 FILLER_105_144
*1358 FILLER_105_2
*1359 FILLER_105_208
*1360 FILLER_105_212
*1361 FILLER_105_215
*1362 FILLER_105_279
*1363 FILLER_105_283
*1364 FILLER_105_286
*1365 FILLER_105_350
*1366 FILLER_105_354
*1367 FILLER_105_357
*1368 FILLER_105_421
*1369 FILLER_105_425
*1370 FILLER_105_428
*1371 FILLER_105_492
*1372 FILLER_105_496
*1373 FILLER_105_499
*1374 FILLER_105_563
*1375 FILLER_105_567
*1376 FILLER_105_570
*1377 FILLER_105_634
*1378 FILLER_105_638
*1379 FILLER_105_641
*1380 FILLER_105_66
*1381 FILLER_105_70
*1382 FILLER_105_705
*1383 FILLER_105_709
*1384 FILLER_105_712
*1385 FILLER_105_73
*1386 FILLER_105_776
*1387 FILLER_105_780
*1388 FILLER_105_783
*1389 FILLER_105_847
*1390 FILLER_105_851
*1391 FILLER_105_854
*1392 FILLER_105_918
*1393 FILLER_105_922
*1394 FILLER_105_925
*1395 FILLER_105_989
*1396 FILLER_105_993
*1397 FILLER_105_996
*1398 FILLER_106_101
*1399 FILLER_106_1024
*1400 FILLER_106_1028
*1401 FILLER_106_1031
*1402 FILLER_106_1039
*1403 FILLER_106_1043
*1404 FILLER_106_105
*1405 FILLER_106_108
*1406 FILLER_106_172
*1407 FILLER_106_176
*1408 FILLER_106_179
*1409 FILLER_106_2
*1410 FILLER_106_243
*1411 FILLER_106_247
*1412 FILLER_106_250
*1413 FILLER_106_314
*1414 FILLER_106_318
*1415 FILLER_106_321
*1416 FILLER_106_34
*1417 FILLER_106_37
*1418 FILLER_106_385
*1419 FILLER_106_389
*1420 FILLER_106_392
*1421 FILLER_106_456
*1422 FILLER_106_460
*1423 FILLER_106_463
*1424 FILLER_106_527
*1425 FILLER_106_531
*1426 FILLER_106_534
*1427 FILLER_106_598
*1428 FILLER_106_602
*1429 FILLER_106_605
*1430 FILLER_106_669
*1431 FILLER_106_673
*1432 FILLER_106_676
*1433 FILLER_106_740
*1434 FILLER_106_744
*1435 FILLER_106_747
*1436 FILLER_106_811
*1437 FILLER_106_815
*1438 FILLER_106_818
*1439 FILLER_106_882
*1440 FILLER_106_886
*1441 FILLER_106_889
*1442 FILLER_106_953
*1443 FILLER_106_957
*1444 FILLER_106_960
*1445 FILLER_107_1028
*1446 FILLER_107_1044
*1447 FILLER_107_137
*1448 FILLER_107_141
*1449 FILLER_107_144
*1450 FILLER_107_2
*1451 FILLER_107_208
*1452 FILLER_107_212
*1453 FILLER_107_215
*1454 FILLER_107_279
*1455 FILLER_107_283
*1456 FILLER_107_286
*1457 FILLER_107_350
*1458 FILLER_107_354
*1459 FILLER_107_357
*1460 FILLER_107_421
*1461 FILLER_107_425
*1462 FILLER_107_428
*1463 FILLER_107_492
*1464 FILLER_107_496
*1465 FILLER_107_499
*1466 FILLER_107_563
*1467 FILLER_107_567
*1468 FILLER_107_570
*1469 FILLER_107_634
*1470 FILLER_107_638
*1471 FILLER_107_641
*1472 FILLER_107_66
*1473 FILLER_107_70
*1474 FILLER_107_705
*1475 FILLER_107_709
*1476 FILLER_107_712
*1477 FILLER_107_73
*1478 FILLER_107_776
*1479 FILLER_107_780
*1480 FILLER_107_783
*1481 FILLER_107_847
*1482 FILLER_107_851
*1483 FILLER_107_854
*1484 FILLER_107_918
*1485 FILLER_107_922
*1486 FILLER_107_925
*1487 FILLER_107_989
*1488 FILLER_107_993
*1489 FILLER_107_996
*1490 FILLER_108_101
*1491 FILLER_108_1024
*1492 FILLER_108_1028
*1493 FILLER_108_1031
*1494 FILLER_108_1039
*1495 FILLER_108_1044
*1496 FILLER_108_105
*1497 FILLER_108_108
*1498 FILLER_108_172
*1499 FILLER_108_176
*1500 FILLER_108_179
*1501 FILLER_108_2
*1502 FILLER_108_243
*1503 FILLER_108_247
*1504 FILLER_108_250
*1505 FILLER_108_314
*1506 FILLER_108_318
*1507 FILLER_108_321
*1508 FILLER_108_34
*1509 FILLER_108_37
*1510 FILLER_108_385
*1511 FILLER_108_389
*1512 FILLER_108_392
*1513 FILLER_108_456
*1514 FILLER_108_460
*1515 FILLER_108_463
*1516 FILLER_108_527
*1517 FILLER_108_531
*1518 FILLER_108_534
*1519 FILLER_108_598
*1520 FILLER_108_602
*1521 FILLER_108_605
*1522 FILLER_108_669
*1523 FILLER_108_673
*1524 FILLER_108_676
*1525 FILLER_108_740
*1526 FILLER_108_744
*1527 FILLER_108_747
*1528 FILLER_108_811
*1529 FILLER_108_815
*1530 FILLER_108_818
*1531 FILLER_108_882
*1532 FILLER_108_886
*1533 FILLER_108_889
*1534 FILLER_108_953
*1535 FILLER_108_957
*1536 FILLER_108_960
*1537 FILLER_109_1028
*1538 FILLER_109_1044
*1539 FILLER_109_137
*1540 FILLER_109_141
*1541 FILLER_109_144
*1542 FILLER_109_2
*1543 FILLER_109_208
*1544 FILLER_109_212
*1545 FILLER_109_215
*1546 FILLER_109_279
*1547 FILLER_109_283
*1548 FILLER_109_286
*1549 FILLER_109_350
*1550 FILLER_109_354
*1551 FILLER_109_357
*1552 FILLER_109_421
*1553 FILLER_109_425
*1554 FILLER_109_428
*1555 FILLER_109_492
*1556 FILLER_109_496
*1557 FILLER_109_499
*1558 FILLER_109_563
*1559 FILLER_109_567
*1560 FILLER_109_570
*1561 FILLER_109_634
*1562 FILLER_109_638
*1563 FILLER_109_641
*1564 FILLER_109_66
*1565 FILLER_109_70
*1566 FILLER_109_705
*1567 FILLER_109_709
*1568 FILLER_109_712
*1569 FILLER_109_73
*1570 FILLER_109_776
*1571 FILLER_109_780
*1572 FILLER_109_783
*1573 FILLER_109_847
*1574 FILLER_109_851
*1575 FILLER_109_854
*1576 FILLER_109_918
*1577 FILLER_109_922
*1578 FILLER_109_925
*1579 FILLER_109_989
*1580 FILLER_109_993
*1581 FILLER_109_996
*1582 FILLER_10_101
*1583 FILLER_10_1024