*SPEF "ieee 1481-1999"
*DESIGN "tiny_user_project"
*DATE "11:11:11 Fri 11 11, 1111"
*VENDOR "OpenRCX"
*PROGRAM "Parallel Extraction"
*VERSION "1.0"
*DESIGN_FLOW "NAME_SCOPE LOCAL" "PIN_CAP NONE"
*DIVIDER /
*DELIMITER :
*BUS_DELIMITER []
*T_UNIT 1 NS
*C_UNIT 1 PF
*R_UNIT 1 OHM
*L_UNIT 1 HENRY

*NAME_MAP
*1 io_in[0]
*2 io_in[10]
*3 io_in[11]
*4 io_in[12]
*5 io_in[13]
*6 io_in[14]
*7 io_in[15]
*8 io_in[16]
*9 io_in[17]
*10 io_in[18]
*11 io_in[19]
*12 io_in[1]
*13 io_in[20]
*14 io_in[21]
*15 io_in[22]
*16 io_in[23]
*17 io_in[24]
*18 io_in[25]
*19 io_in[26]
*20 io_in[27]
*21 io_in[28]
*22 io_in[29]
*23 io_in[2]
*24 io_in[30]
*25 io_in[31]
*26 io_in[32]
*27 io_in[33]
*28 io_in[34]
*29 io_in[35]
*30 io_in[36]
*31 io_in[37]
*32 io_in[3]
*33 io_in[4]
*34 io_in[5]
*35 io_in[6]
*36 io_in[7]
*37 io_in[8]
*38 io_in[9]
*39 net106
*40 net116
*41 net117
*42 net118
*43 net119
*44 net120
*45 net121
*46 net122
*47 net123
*48 net124
*49 net125
*50 net107
*51 net126
*52 net127
*53 net128
*54 net129
*55 net130
*56 net131
*57 net132
*58 net133
*59 net134
*60 net135
*61 net108
*62 net136
*63 net137
*64 net138
*65 net139
*66 net140
*67 net141
*68 net142
*69 net143
*70 net109
*71 net110
*72 net111
*73 net112
*74 net113
*75 net114
*76 net115
*77 net76
*78 net86
*79 net87
*80 net88
*81 net89
*82 net90
*83 net91
*84 io_out[16]
*85 io_out[17]
*86 io_out[18]
*87 io_out[19]
*88 net77
*89 io_out[20]
*90 io_out[21]
*91 io_out[22]
*92 io_out[23]
*93 net92
*94 net93
*95 net94
*96 net95
*97 net96
*98 net97
*99 net78
*100 net98
*101 net99
*102 net100
*103 net101
*104 net102
*105 net103
*106 net104
*107 net105
*108 net79
*109 net80
*110 net81
*111 net82
*112 net83
*113 net84
*114 net85
*115 la_data_in[0]
*116 la_data_in[10]
*117 la_data_in[11]
*118 la_data_in[12]
*119 la_data_in[13]
*120 la_data_in[14]
*121 la_data_in[15]
*122 la_data_in[16]
*123 la_data_in[17]
*124 la_data_in[18]
*125 la_data_in[19]
*126 la_data_in[1]
*127 la_data_in[20]
*128 la_data_in[21]
*129 la_data_in[22]
*130 la_data_in[23]
*131 la_data_in[24]
*132 la_data_in[25]
*133 la_data_in[26]
*134 la_data_in[27]
*135 la_data_in[28]
*136 la_data_in[29]
*137 la_data_in[2]
*138 la_data_in[30]
*139 la_data_in[31]
*140 la_data_in[32]
*141 la_data_in[33]
*142 la_data_in[34]
*143 la_data_in[35]
*144 la_data_in[36]
*145 la_data_in[37]
*146 la_data_in[38]
*147 la_data_in[39]
*148 la_data_in[3]
*149 la_data_in[40]
*150 la_data_in[41]
*151 la_data_in[42]
*152 la_data_in[43]
*153 la_data_in[44]
*154 la_data_in[45]
*155 la_data_in[46]
*156 la_data_in[47]
*157 la_data_in[48]
*158 la_data_in[49]
*159 la_data_in[4]
*160 la_data_in[50]
*161 la_data_in[51]
*162 la_data_in[52]
*163 la_data_in[53]
*164 la_data_in[54]
*165 la_data_in[55]
*166 la_data_in[56]
*167 la_data_in[57]
*168 la_data_in[58]
*169 la_data_in[59]
*170 la_data_in[5]
*171 la_data_in[60]
*172 la_data_in[61]
*173 la_data_in[62]
*174 la_data_in[63]
*175 la_data_in[6]
*176 la_data_in[7]
*177 la_data_in[8]
*178 la_data_in[9]
*179 net12
*180 net22
*181 net23
*182 net24
*183 net25
*184 net26
*185 net27
*186 net28
*187 net29
*188 net30
*189 net31
*190 net13
*191 net32
*192 net33
*193 net34
*194 net35
*195 net36
*196 net37
*197 net38
*198 net39
*199 net40
*200 net41
*201 net14
*202 net42
*203 net43
*204 net44
*205 net45
*206 net46
*207 net47
*208 net48
*209 net49
*210 net50
*211 net51
*212 net15
*213 net52
*214 net53
*215 net54
*216 net55
*217 net56
*218 net57
*219 net58
*220 net59
*221 net60
*222 net61
*223 net16
*224 net62
*225 net63
*226 net64
*227 net65
*228 net66
*229 net67
*230 net68
*231 net69
*232 net70
*233 net71
*234 net17
*235 net72
*236 net73
*237 net74
*238 net75
*239 net18
*240 net19
*241 net20
*242 net21
*243 la_oenb[0]
*244 la_oenb[10]
*245 la_oenb[11]
*246 la_oenb[12]
*247 la_oenb[13]
*248 la_oenb[14]
*249 la_oenb[15]
*250 la_oenb[16]
*251 la_oenb[17]
*252 la_oenb[18]
*253 la_oenb[19]
*254 la_oenb[1]
*255 la_oenb[20]
*256 la_oenb[21]
*257 la_oenb[22]
*258 la_oenb[23]
*259 la_oenb[24]
*260 la_oenb[25]
*261 la_oenb[26]
*262 la_oenb[27]
*263 la_oenb[28]
*264 la_oenb[29]
*265 la_oenb[2]
*266 la_oenb[30]
*267 la_oenb[31]
*268 la_oenb[32]
*269 la_oenb[33]
*270 la_oenb[34]
*271 la_oenb[35]
*272 la_oenb[36]
*273 la_oenb[37]
*274 la_oenb[38]
*275 la_oenb[39]
*276 la_oenb[3]
*277 la_oenb[40]
*278 la_oenb[41]
*279 la_oenb[42]
*280 la_oenb[43]
*281 la_oenb[44]
*282 la_oenb[45]
*283 la_oenb[46]
*284 la_oenb[47]
*285 la_oenb[48]
*286 la_oenb[49]
*287 la_oenb[4]
*288 la_oenb[50]
*289 la_oenb[51]
*290 la_oenb[52]
*291 la_oenb[53]
*292 la_oenb[54]
*293 la_oenb[55]
*294 la_oenb[56]
*295 la_oenb[57]
*296 la_oenb[58]
*297 la_oenb[59]
*298 la_oenb[5]
*299 la_oenb[60]
*300 la_oenb[61]
*301 la_oenb[62]
*302 la_oenb[63]
*303 la_oenb[6]
*304 la_oenb[7]
*305 la_oenb[8]
*306 la_oenb[9]
*307 user_clock2
*308 net144
*309 net145
*310 net146
*313 wb_clk_i
*314 wb_rst_i
*315 net147
*316 wbs_adr_i[0]
*317 wbs_adr_i[10]
*318 wbs_adr_i[11]
*319 wbs_adr_i[12]
*320 wbs_adr_i[13]
*321 wbs_adr_i[14]
*322 wbs_adr_i[15]
*323 wbs_adr_i[16]
*324 wbs_adr_i[17]
*325 wbs_adr_i[18]
*326 wbs_adr_i[19]
*327 wbs_adr_i[1]
*328 wbs_adr_i[20]
*329 wbs_adr_i[21]
*330 wbs_adr_i[22]
*331 wbs_adr_i[23]
*332 wbs_adr_i[24]
*333 wbs_adr_i[25]
*334 wbs_adr_i[26]
*335 wbs_adr_i[27]
*336 wbs_adr_i[28]
*337 wbs_adr_i[29]
*338 wbs_adr_i[2]
*339 wbs_adr_i[30]
*340 wbs_adr_i[31]
*341 wbs_adr_i[3]
*342 wbs_adr_i[4]
*343 wbs_adr_i[5]
*344 wbs_adr_i[6]
*345 wbs_adr_i[7]
*346 wbs_adr_i[8]
*347 wbs_adr_i[9]
*348 wbs_cyc_i
*349 wbs_dat_i[0]
*350 wbs_dat_i[10]
*351 wbs_dat_i[11]
*352 wbs_dat_i[12]
*353 wbs_dat_i[13]
*354 wbs_dat_i[14]
*355 wbs_dat_i[15]
*356 wbs_dat_i[16]
*357 wbs_dat_i[17]
*358 wbs_dat_i[18]
*359 wbs_dat_i[19]
*360 wbs_dat_i[1]
*361 wbs_dat_i[20]
*362 wbs_dat_i[21]
*363 wbs_dat_i[22]
*364 wbs_dat_i[23]
*365 wbs_dat_i[24]
*366 wbs_dat_i[25]
*367 wbs_dat_i[26]
*368 wbs_dat_i[27]
*369 wbs_dat_i[28]
*370 wbs_dat_i[29]
*371 wbs_dat_i[2]
*372 wbs_dat_i[30]
*373 wbs_dat_i[31]
*374 wbs_dat_i[3]
*375 wbs_dat_i[4]
*376 wbs_dat_i[5]
*377 wbs_dat_i[6]
*378 wbs_dat_i[7]
*379 wbs_dat_i[8]
*380 wbs_dat_i[9]
*381 net148
*382 net158
*383 net159
*384 net160
*385 net161
*386 net162
*387 net163
*388 net164
*389 net165
*390 net166
*391 net167
*392 net149
*393 net168
*394 net169
*395 net170
*396 net171
*397 net172
*398 net173
*399 net174
*400 net175
*401 net176
*402 net177
*403 net150
*404 net178
*405 net179
*406 net151
*407 net152
*408 net153
*409 net154
*410 net155
*411 net156
*412 net157
*413 wbs_sel_i[0]
*414 wbs_sel_i[1]
*415 wbs_sel_i[2]
*416 wbs_sel_i[3]
*417 wbs_stb_i
*418 wbs_we_i
*419 _000_
*420 _001_
*421 _002_
*422 _003_
*423 _004_
*424 _005_
*425 _006_
*426 _007_
*427 _008_
*428 _009_
*429 mod\.flipflop1\.d
*430 mod\.flipflop10\.d
*431 mod\.flipflop2\.d
*432 mod\.flipflop3\.d
*433 mod\.flipflop4\.d
*434 mod\.flipflop5\.d
*435 mod\.flipflop6\.d
*436 mod\.flipflop7\.d
*437 net1
*438 net10
*439 net11
*440 net2
*441 net3
*442 net4
*443 net5
*444 net6
*445 net7
*446 net8
*447 net9
*448 ANTENNA__010__I
*449 ANTENNA__011__I
*450 ANTENNA__013__I
*451 ANTENNA__015__I
*452 ANTENNA__017__I
*453 ANTENNA__019__I
*454 ANTENNA__020__I
*455 ANTENNA__022__I
*456 ANTENNA__024__I
*457 ANTENNA__026__I
*458 ANTENNA__028__CLK
*459 ANTENNA__029__CLK
*460 ANTENNA__030__CLK
*461 ANTENNA__031__CLK
*462 ANTENNA__032__CLK
*463 ANTENNA__033__CLK
*464 ANTENNA__034__CLK
*465 ANTENNA__035__CLK
*466 ANTENNA_input1_I
*467 ANTENNA_input2_I
*468 ANTENNA_input3_I
*469 ANTENNA_output10_I
*470 ANTENNA_output11_I
*471 ANTENNA_output4_I
*472 ANTENNA_output5_I
*473 ANTENNA_output6_I
*474 ANTENNA_output7_I
*475 ANTENNA_output8_I
*476 ANTENNA_output9_I
*477 FILLER_0_101
*478 FILLER_0_1011
*479 FILLER_0_1017
*480 FILLER_0_1025
*481 FILLER_0_1029
*482 FILLER_0_1044
*483 FILLER_0_107
*484 FILLER_0_11
*485 FILLER_0_115
*486 FILLER_0_119
*487 FILLER_0_135
*488 FILLER_0_139
*489 FILLER_0_142
*490 FILLER_0_174
*491 FILLER_0_177
*492 FILLER_0_2
*493 FILLER_0_209
*494 FILLER_0_212
*495 FILLER_0_228
*496 FILLER_0_233
*497 FILLER_0_237
*498 FILLER_0_239
*499 FILLER_0_244
*500 FILLER_0_247
*501 FILLER_0_251
*502 FILLER_0_257
*503 FILLER_0_263
*504 FILLER_0_27
*505 FILLER_0_279
*506 FILLER_0_282
*507 FILLER_0_287
*508 FILLER_0_299
*509 FILLER_0_317
*510 FILLER_0_323
*511 FILLER_0_329
*512 FILLER_0_345
*513 FILLER_0_349
*514 FILLER_0_352
*515 FILLER_0_368
*516 FILLER_0_37
*517 FILLER_0_372
*518 FILLER_0_377
*519 FILLER_0_387
*520 FILLER_0_395
*521 FILLER_0_411
*522 FILLER_0_419
*523 FILLER_0_422
*524 FILLER_0_426
*525 FILLER_0_431
*526 FILLER_0_447
*527 FILLER_0_449
*528 FILLER_0_454
*529 FILLER_0_457
*530 FILLER_0_462
*531 FILLER_0_466
*532 FILLER_0_468
*533 FILLER_0_473
*534 FILLER_0_485
*535 FILLER_0_489
*536 FILLER_0_492
*537 FILLER_0_508
*538 FILLER_0_516
*539 FILLER_0_521
*540 FILLER_0_527
*541 FILLER_0_53
*542 FILLER_0_543
*543 FILLER_0_551
*544 FILLER_0_559
*545 FILLER_0_562
*546 FILLER_0_59
*547 FILLER_0_594
*548 FILLER_0_597
*549 FILLER_0_6
*550 FILLER_0_602
*551 FILLER_0_608
*552 FILLER_0_612
*553 FILLER_0_617
*554 FILLER_0_625
*555 FILLER_0_629
*556 FILLER_0_632
*557 FILLER_0_65
*558 FILLER_0_664
*559 FILLER_0_667
*560 FILLER_0_672
*561 FILLER_0_676
*562 FILLER_0_678
*563 FILLER_0_683
*564 FILLER_0_69
*565 FILLER_0_695
*566 FILLER_0_699
*567 FILLER_0_702
*568 FILLER_0_718
*569 FILLER_0_72
*570 FILLER_0_726
*571 FILLER_0_731
*572 FILLER_0_737
*573 FILLER_0_749
*574 FILLER_0_761
*575 FILLER_0_769
*576 FILLER_0_77
*577 FILLER_0_772
*578 FILLER_0_777
*579 FILLER_0_793
*580 FILLER_0_801
*581 FILLER_0_807
*582 FILLER_0_827
*583 FILLER_0_835
*584 FILLER_0_839
*585 FILLER_0_842
*586 FILLER_0_874
*587 FILLER_0_877
*588 FILLER_0_885
*589 FILLER_0_893
*590 FILLER_0_909
*591 FILLER_0_912
*592 FILLER_0_93
*593 FILLER_0_944
*594 FILLER_0_947
*595 FILLER_0_952
*596 FILLER_0_960
*597 FILLER_0_964
*598 FILLER_0_966
*599 FILLER_0_971
*600 FILLER_0_979
*601 FILLER_0_982
*602 FILLER_0_987
*603 FILLER_0_995
*604 FILLER_100_101
*605 FILLER_100_1024
*606 FILLER_100_1028
*607 FILLER_100_1031
*608 FILLER_100_1039
*609 FILLER_100_1043
*610 FILLER_100_105
*611 FILLER_100_108
*612 FILLER_100_172
*613 FILLER_100_176
*614 FILLER_100_179
*615 FILLER_100_2
*616 FILLER_100_243
*617 FILLER_100_247
*618 FILLER_100_250
*619 FILLER_100_314
*620 FILLER_100_318
*621 FILLER_100_321
*622 FILLER_100_34
*623 FILLER_100_37
*624 FILLER_100_385
*625 FILLER_100_389
*626 FILLER_100_392
*627 FILLER_100_456
*628 FILLER_100_460
*629 FILLER_100_463
*630 FILLER_100_527
*631 FILLER_100_531
*632 FILLER_100_534
*633 FILLER_100_598
*634 FILLER_100_602
*635 FILLER_100_605
*636 FILLER_100_669
*637 FILLER_100_673
*638 FILLER_100_676
*639 FILLER_100_740
*640 FILLER_100_744
*641 FILLER_100_747
*642 FILLER_100_811
*643 FILLER_100_815
*644 FILLER_100_818
*645 FILLER_100_882
*646 FILLER_100_886
*647 FILLER_100_889
*648 FILLER_100_953
*649 FILLER_100_957
*650 FILLER_100_960
*651 FILLER_101_1028
*652 FILLER_101_1036
*653 FILLER_101_1044
*654 FILLER_101_137
*655 FILLER_101_141
*656 FILLER_101_144
*657 FILLER_101_2
*658 FILLER_101_208
*659 FILLER_101_212
*660 FILLER_101_215
*661 FILLER_101_279
*662 FILLER_101_283
*663 FILLER_101_286
*664 FILLER_101_350
*665 FILLER_101_354
*666 FILLER_101_357
*667 FILLER_101_421
*668 FILLER_101_425
*669 FILLER_101_428
*670 FILLER_101_492
*671 FILLER_101_496
*672 FILLER_101_499
*673 FILLER_101_563
*674 FILLER_101_567
*675 FILLER_101_570
*676 FILLER_101_634
*677 FILLER_101_638
*678 FILLER_101_641
*679 FILLER_101_66
*680 FILLER_101_70
*681 FILLER_101_705
*682 FILLER_101_709
*683 FILLER_101_712
*684 FILLER_101_73
*685 FILLER_101_776
*686 FILLER_101_780
*687 FILLER_101_783
*688 FILLER_101_847
*689 FILLER_101_851
*690 FILLER_101_854
*691 FILLER_101_918
*692 FILLER_101_922
*693 FILLER_101_925
*694 FILLER_101_989
*695 FILLER_101_993
*696 FILLER_101_996
*697 FILLER_102_101
*698 FILLER_102_1024
*699 FILLER_102_1028
*700 FILLER_102_1031
*701 FILLER_102_1039
*702 FILLER_102_1043
*703 FILLER_102_105
*704 FILLER_102_108
*705 FILLER_102_13
*706 FILLER_102_172
*707 FILLER_102_176
*708 FILLER_102_179
*709 FILLER_102_2
*710 FILLER_102_243
*711 FILLER_102_247
*712 FILLER_102_250
*713 FILLER_102_29
*714 FILLER_102_314
*715 FILLER_102_318
*716 FILLER_102_321
*717 FILLER_102_33
*718 FILLER_102_37
*719 FILLER_102_385
*720 FILLER_102_389
*721 FILLER_102_392
*722 FILLER_102_456
*723 FILLER_102_460
*724 FILLER_102_463
*725 FILLER_102_527
*726 FILLER_102_531
*727 FILLER_102_534
*728 FILLER_102_598
*729 FILLER_102_602
*730 FILLER_102_605
*731 FILLER_102_669
*732 FILLER_102_673
*733 FILLER_102_676
*734 FILLER_102_7
*735 FILLER_102_740
*736 FILLER_102_744
*737 FILLER_102_747
*738 FILLER_102_811
*739 FILLER_102_815
*740 FILLER_102_818
*741 FILLER_102_882
*742 FILLER_102_886
*743 FILLER_102_889
*744 FILLER_102_953
*745 FILLER_102_957
*746 FILLER_102_960
*747 FILLER_103_1028
*748 FILLER_103_1036
*749 FILLER_103_1044
*750 FILLER_103_137
*751 FILLER_103_141
*752 FILLER_103_144
*753 FILLER_103_2
*754 FILLER_103_208
*755 FILLER_103_212
*756 FILLER_103_215
*757 FILLER_103_279
*758 FILLER_103_283
*759 FILLER_103_286
*760 FILLER_103_350
*761 FILLER_103_354
*762 FILLER_103_357
*763 FILLER_103_421
*764 FILLER_103_425
*765 FILLER_103_428
*766 FILLER_103_492
*767 FILLER_103_496
*768 FILLER_103_499
*769 FILLER_103_563
*770 FILLER_103_567
*771 FILLER_103_570
*772 FILLER_103_634
*773 FILLER_103_638
*774 FILLER_103_641
*775 FILLER_103_66
*776 FILLER_103_70
*777 FILLER_103_705
*778 FILLER_103_709
*779 FILLER_103_712
*780 FILLER_103_73
*781 FILLER_103_776
*782 FILLER_103_780
*783 FILLER_103_783
*784 FILLER_103_847
*785 FILLER_103_851
*786 FILLER_103_854
*787 FILLER_103_918
*788 FILLER_103_922
*789 FILLER_103_925
*790 FILLER_103_989
*791 FILLER_103_993
*792 FILLER_103_996
*793 FILLER_104_101
*794 FILLER_104_1024
*795 FILLER_104_1028
*796 FILLER_104_1031
*797 FILLER_104_1039
*798 FILLER_104_1043
*799 FILLER_104_105
*800 FILLER_104_108
*801 FILLER_104_17
*802 FILLER_104_172
*803 FILLER_104_176
*804 FILLER_104_179
*805 FILLER_104_2
*806 FILLER_104_21
*807 FILLER_104_243
*808 FILLER_104_247
*809 FILLER_104_250
*810 FILLER_104_29
*811 FILLER_104_314
*812 FILLER_104_318
*813 FILLER_104_321
*814 FILLER_104_33
*815 FILLER_104_37
*816 FILLER_104_385
*817 FILLER_104_389
*818 FILLER_104_392
*819 FILLER_104_456
*820 FILLER_104_460
*821 FILLER_104_463
*822 FILLER_104_527
*823 FILLER_104_531
*824 FILLER_104_534
*825 FILLER_104_598
*826 FILLER_104_602
*827 FILLER_104_605
*828 FILLER_104_669
*829 FILLER_104_673
*830 FILLER_104_676
*831 FILLER_104_740
*832 FILLER_104_744
*833 FILLER_104_747
*834 FILLER_104_811
*835 FILLER_104_815
*836 FILLER_104_818
*837 FILLER_104_882
*838 FILLER_104_886
*839 FILLER_104_889
*840 FILLER_104_953
*841 FILLER_104_957
*842 FILLER_104_960
*843 FILLER_105_1028
*844 FILLER_105_1044
*845 FILLER_105_137
*846 FILLER_105_141
*847 FILLER_105_144
*848 FILLER_105_2
*849 FILLER_105_208
*850 FILLER_105_212
*851 FILLER_105_215
*852 FILLER_105_279
*853 FILLER_105_283
*854 FILLER_105_286
*855 FILLER_105_350
*856 FILLER_105_354
*857 FILLER_105_357
*858 FILLER_105_421
*859 FILLER_105_425
*860 FILLER_105_428
*861 FILLER_105_492
*862 FILLER_105_496
*863 FILLER_105_499
*864 FILLER_105_563
*865 FILLER_105_567
*866 FILLER_105_570
*867 FILLER_105_634
*868 FILLER_105_638
*869 FILLER_105_641
*870 FILLER_105_66
*871 FILLER_105_70
*872 FILLER_105_705
*873 FILLER_105_709
*874 FILLER_105_712
*875 FILLER_105_73
*876 FILLER_105_776
*877 FILLER_105_780
*878 FILLER_105_783
*879 FILLER_105_847
*880 FILLER_105_851
*881 FILLER_105_854
*882 FILLER_105_918
*883 FILLER_105_922
*884 FILLER_105_925
*885 FILLER_105_989
*886 FILLER_105_993
*887 FILLER_105_996
*888 FILLER_106_101
*889 FILLER_106_1024
*890 FILLER_106_1028
*891 FILLER_106_1031
*892 FILLER_106_1039
*893 FILLER_106_1043
*894 FILLER_106_105
*895 FILLER_106_108
*896 FILLER_106_172
*897 FILLER_106_176
*898 FILLER_106_179
*899 FILLER_106_2
*900 FILLER_106_243
*901 FILLER_106_247
*902 FILLER_106_250
*903 FILLER_106_314
*904 FILLER_106_318
*905 FILLER_106_321
*906 FILLER_106_34
*907 FILLER_106_37
*908 FILLER_106_385
*909 FILLER_106_389
*910 FILLER_106_392
*911 FILLER_106_456
*912 FILLER_106_460
*913 FILLER_106_463
*914 FILLER_106_527
*915 FILLER_106_531
*916 FILLER_106_534
*917 FILLER_106_598
*918 FILLER_106_602
*919 FILLER_106_605
*920 FILLER_106_669
*921 FILLER_106_673
*922 FILLER_106_676
*923 FILLER_106_740
*924 FILLER_106_744
*925 FILLER_106_747
*926 FILLER_106_811
*927 FILLER_106_815
*928 FILLER_106_818
*929 FILLER_106_882
*930 FILLER_106_886
*931 FILLER_106_889
*932 FILLER_106_953
*933 FILLER_106_957
*934 FILLER_106_960
*935 FILLER_107_1028
*936 FILLER_107_1044
*937 FILLER_107_137
*938 FILLER_107_141
*939 FILLER_107_144
*940 FILLER_107_2
*941 FILLER_107_208
*942 FILLER_107_212
*943 FILLER_107_215
*944 FILLER_107_279
*945 FILLER_107_283
*946 FILLER_107_286
*947 FILLER_107_350
*948 FILLER_107_354
*949 FILLER_107_357
*950 FILLER_107_421
*951 FILLER_107_425
*952 FILLER_107_428
*953 FILLER_107_492
*954 FILLER_107_496
*955 FILLER_107_499
*956 FILLER_107_563
*957 FILLER_107_567
*958 FILLER_107_570
*959 FILLER_107_634
*960 FILLER_107_638
*961 FILLER_107_641
*962 FILLER_107_66
*963 FILLER_107_70
*964 FILLER_107_705
*965 FILLER_107_709
*966 FILLER_107_712
*967 FILLER_107_73
*968 FILLER_107_776
*969 FILLER_107_780
*970 FILLER_107_783
*971 FILLER_107_847
*972 FILLER_107_851
*973 FILLER_107_854
*974 FILLER_107_918
*975 FILLER_107_922
*976 FILLER_107_925
*977 FILLER_107_989
*978 FILLER_107_993
*979 FILLER_107_996
*980 FILLER_108_101
*981 FILLER_108_1024
*982 FILLER_108_1028
*983 FILLER_108_1031
*984 FILLER_108_1039
*985 FILLER_108_1044
*986 FILLER_108_105
*987 FILLER_108_108
*988 FILLER_108_172
*989 FILLER_108_176
*990 FILLER_108_179
*991 FILLER_108_2
*992 FILLER_108_243
*993 FILLER_108_247
*994 FILLER_108_250
*995 FILLER_108_314
*996 FILLER_108_318
*997 FILLER_108_321
*998 FILLER_108_34
*999 FILLER_108_37
*1000 FILLER_108_385
*1001 FILLER_108_389
*1002 FILLER_108_392
*1003 FILLER_108_456
*1004 FILLER_108_460
*1005 FILLER_108_463
*1006 FILLER_108_527
*1007 FILLER_108_531
*1008 FILLER_108_534
*1009 FILLER_108_598
*1010 FILLER_108_602
*1011 FILLER_108_605
*1012 FILLER_108_669
*1013 FILLER_108_673
*1014 FILLER_108_676
*1015 FILLER_108_740
*1016 FILLER_108_744
*1017 FILLER_108_747
*1018 FILLER_108_811
*1019 FILLER_108_815
*1020 FILLER_108_818
*1021 FILLER_108_882
*1022 FILLER_108_886
*1023 FILLER_108_889
*1024 FILLER_108_953
*1025 FILLER_108_957
*1026 FILLER_108_960
*1027 FILLER_109_1028
*1028 FILLER_109_1044
*1029 FILLER_109_137
*1030 FILLER_109_141
*1031 FILLER_109_144
*1032 FILLER_109_2
*1033 FILLER_109_208
*1034 FILLER_109_212
*1035 FILLER_109_215
*1036 FILLER_109_279
*1037 FILLER_109_283
*1038 FILLER_109_286
*1039 FILLER_109_350
*1040 FILLER_109_354
*1041 FILLER_109_357
*1042 FILLER_109_421
*1043 FILLER_109_425
*1044 FILLER_109_428
*1045 FILLER_109_492
*1046 FILLER_109_496
*1047 FILLER_109_499
*1048 FILLER_109_563
*1049 FILLER_109_567
*1050 FILLER_109_570
*1051 FILLER_109_634
*1052 FILLER_109_638
*1053 FILLER_109_641
*1054 FILLER_109_66
*1055 FILLER_109_70
*1056 FILLER_109_705
*1057 FILLER_109_709
*1058 FILLER_109_712
*1059 FILLER_109_73
*1060 FILLER_109_776
*1061 FILLER_109_780
*1062 FILLER_109_783
*1063 FILLER_109_847
*1064 FILLER_109_851
*1065 FILLER_109_854
*1066 FILLER_109_918
*1067 FILLER_109_922
*1068 FILLER_109_925
*1069 FILLER_109_989
*1070 FILLER_109_993
*1071 FILLER_109_996
*1072 FILLER_10_101
*1073 FILLER_10_1024
*1074 FILLER_10_1028
*1075 FILLER_10_1031
*1076 FILLER_10_1039
*1077 FILLER_10_1043
*1078 FILLER_10_105
*1079 FILLER_10_108
*1080 FILLER_10_172
*1081 FILLER_10_176
*1082 FILLER_10_179
*1083 FILLER_10_2
*1084 FILLER_10_23
*1085 FILLER_10_243
*1086 FILLER_10_247
*1087 FILLER_10_250
*1088 FILLER_10_31
*1089 FILLER_10_314
*1090 FILLER_10_318
*1091 FILLER_10_321
*1092 FILLER_10_37
*1093 FILLER_10_385
*1094 FILLER_10_389
*1095 FILLER_10_392
*1096 FILLER_10_456
*1097 FILLER_10_460
*1098 FILLER_10_463
*1099 FILLER_10_527
*1100 FILLER_10_531
*1101 FILLER_10_534
*1102 FILLER_10_598
*1103 FILLER_10_602
*1104 FILLER_10_605
*1105 FILLER_10_669
*1106 FILLER_10_673
*1107 FILLER_10_676
*1108 FILLER_10_7
*1109 FILLER_10_740
*1110 FILLER_10_744
*1111 FILLER_10_747
*1112 FILLER_10_811
*1113 FILLER_10_815
*1114 FILLER_10_818
*1115 FILLER_10_882
*1116 FILLER_10_886
*1117 FILLER_10_889
*1118 FILLER_10_953
*1119 FILLER_10_957
*1120 FILLER_10_960
*1121 FILLER_110_101
*1122 FILLER_110_1024
*1123 FILLER_110_1028
*1124 FILLER_110_1031
*1125 FILLER_110_1039
*1126 FILLER_110_1043
*1127 FILLER_110_105
*1128 FILLER_110_108
*1129 FILLER_110_172
*1130 FILLER_110_176
*1131 FILLER_110_179
*1132 FILLER_110_2
*1133 FILLER_110_21
*1134 FILLER_110_243
*1135 FILLER_110_247
*1136 FILLER_110_250
*1137 FILLER_110_29
*1138 FILLER_110_314
*1139 FILLER_110_318
*1140 FILLER_110_321
*1141 FILLER_110_33
*1142 FILLER_110_37
*1143 FILLER_110_385
*1144 FILLER_110_389
*1145 FILLER_110_392
*1146 FILLER_110_456
*1147 FILLER_110_460
*1148 FILLER_110_463
*1149 FILLER_110_5
*1150 FILLER_110_527
*1151 FILLER_110_531
*1152 FILLER_110_534
*1153 FILLER_110_598
*1154 FILLER_110_602
*1155 FILLER_110_605
*1156 FILLER_110_669
*1157 FILLER_110_673
*1158 FILLER_110_676
*1159 FILLER_110_740
*1160 FILLER_110_744
*1161 FILLER_110_747
*1162 FILLER_110_811
*1163 FILLER_110_815
*1164 FILLER_110_818
*1165 FILLER_110_882
*1166 FILLER_110_886
*1167 FILLER_110_889
*1168 FILLER_110_953
*1169 FILLER_110_957
*1170 FILLER_110_960
*1171 FILLER_111_1028
*1172 FILLER_111_1044
*1173 FILLER_111_137
*1174 FILLER_111_141
*1175 FILLER_111_144
*1176 FILLER_111_2
*1177 FILLER_111_208
*1178 FILLER_111_212
*1179 FILLER_111_215
*1180 FILLER_111_279
*1181 FILLER_111_283
*1182 FILLER_111_286
*1183 FILLER_111_350
*1184 FILLER_111_354
*1185 FILLER_111_357
*1186 FILLER_111_41
*1187 FILLER_111_421
*1188 FILLER_111_425
*1189 FILLER_111_428
*1190 FILLER_111_492
*1191 FILLER_111_496
*1192 FILLER_111_499
*1193 FILLER_111_563
*1194 FILLER_111_567
*1195 FILLER_111_57
*1196 FILLER_111_570
*1197 FILLER_111_634
*1198 FILLER_111_638
*1199 FILLER_111_641
*1200 FILLER_111_65
*1201 FILLER_111_69
*1202 FILLER_111_705
*1203 FILLER_111_709
*1204 FILLER_111_712
*1205 FILLER_111_73
*1206 FILLER_111_776
*1207 FILLER_111_780
*1208 FILLER_111_783
*1209 FILLER_111_847
*1210 FILLER_111_851
*1211 FILLER_111_854
*1212 FILLER_111_9
*1213 FILLER_111_918
*1214 FILLER_111_922
*1215 FILLER_111_925
*1216 FILLER_111_989
*1217 FILLER_111_993
*1218 FILLER_111_996
*1219 FILLER_112_101
*1220 FILLER_112_1024
*1221 FILLER_112_1028
*1222 FILLER_112_1031
*1223 FILLER_112_1039
*1224 FILLER_112_1044
*1225 FILLER_112_105
*1226 FILLER_112_108
*1227 FILLER_112_172
*1228 FILLER_112_176
*1229 FILLER_112_179
*1230 FILLER_112_2
*1231 FILLER_112_23
*1232 FILLER_112_243
*1233 FILLER_112_247
*1234 FILLER_112_250
*1235 FILLER_112_31
*1236 FILLER_112_314
*1237 FILLER_112_318
*1238 FILLER_112_321
*1239 FILLER_112_37
*1240 FILLER_112_385
*1241 FILLER_112_389
*1242 FILLER_112_392
*1243 FILLER_112_456
*1244 FILLER_112_460
*1245 FILLER_112_463
*1246 FILLER_112_527
*1247 FILLER_112_531
*1248 FILLER_112_534
*1249 FILLER_112_598
*1250 FILLER_112_602
*1251 FILLER_112_605
*1252 FILLER_112_669
*1253 FILLER_112_673
*1254 FILLER_112_676
*1255 FILLER_112_7
*1256 FILLER_112_740
*1257 FILLER_112_744
*1258 FILLER_112_747
*1259 FILLER_112_811
*1260 FILLER_112_815
*1261 FILLER_112_818
*1262 FILLER_112_882
*1263 FILLER_112_886
*1264 FILLER_112_889
*1265 FILLER_112_953
*1266 FILLER_112_957
*1267 FILLER_112_960
*1268 FILLER_113_1028
*1269 FILLER_113_1044
*1270 FILLER_113_137
*1271 FILLER_113_141
*1272 FILLER_113_144
*1273 FILLER_113_2
*1274 FILLER_113_208
*1275 FILLER_113_212
*1276 FILLER_113_215
*1277 FILLER_113_279
*1278 FILLER_113_283
*1279 FILLER_113_286
*1280 FILLER_113_350
*1281 FILLER_113_354
*1282 FILLER_113_357
*1283 FILLER_113_421
*1284 FILLER_113_425
*1285 FILLER_113_428
*1286 FILLER_113_492
*1287 FILLER_113_496
*1288 FILLER_113_499
*1289 FILLER_113_563
*1290 FILLER_113_567
*1291 FILLER_113_570
*1292 FILLER_113_634
*1293 FILLER_113_638
*1294 FILLER_113_641
*1295 FILLER_113_66
*1296 FILLER_113_70
*1297 FILLER_113_705
*1298 FILLER_113_709
*1299 FILLER_113_712
*1300 FILLER_113_73
*1301 FILLER_113_776
*1302 FILLER_113_780
*1303 FILLER_113_783
*1304 FILLER_113_847
*1305 FILLER_113_851
*1306 FILLER_113_854
*1307 FILLER_113_918
*1308 FILLER_113_922
*1309 FILLER_113_925
*1310 FILLER_113_989
*1311 FILLER_113_993
*1312 FILLER_113_996
*1313 FILLER_114_101
*1314 FILLER_114_1024
*1315 FILLER_114_1028
*1316 FILLER_114_1031
*1317 FILLER_114_1039
*1318 FILLER_114_1043
*1319 FILLER_114_105
*1320 FILLER_114_108
*1321 FILLER_114_172
*1322 FILLER_114_176
*1323 FILLER_114_179
*1324 FILLER_114_2
*1325 FILLER_114_23
*1326 FILLER_114_243
*1327 FILLER_114_247
*1328 FILLER_114_250
*1329 FILLER_114_31
*1330 FILLER_114_314
*1331 FILLER_114_318
*1332 FILLER_114_321
*1333 FILLER_114_37
*1334 FILLER_114_385
*1335 FILLER_114_389
*1336 FILLER_114_392
*1337 FILLER_114_456
*1338 FILLER_114_460
*1339 FILLER_114_463
*1340 FILLER_114_527
*1341 FILLER_114_531
*1342 FILLER_114_534
*1343 FILLER_114_598
*1344 FILLER_114_602
*1345 FILLER_114_605
*1346 FILLER_114_669
*1347 FILLER_114_673
*1348 FILLER_114_676
*1349 FILLER_114_7
*1350 FILLER_114_740
*1351 FILLER_114_744
*1352 FILLER_114_747
*1353 FILLER_114_811
*1354 FILLER_114_815
*1355 FILLER_114_818
*1356 FILLER_114_882
*1357 FILLER_114_886
*1358 FILLER_114_889
*1359 FILLER_114_953
*1360 FILLER_114_957
*1361 FILLER_114_960
*1362 FILLER_115_1028
*1363 FILLER_115_1044
*1364 FILLER_115_137
*1365 FILLER_115_141
*1366 FILLER_115_144
*1367 FILLER_115_2
*1368 FILLER_115_208
*1369 FILLER_115_212
*1370 FILLER_115_215
*1371 FILLER_115_279
*1372 FILLER_115_283
*1373 FILLER_115_286
*1374 FILLER_115_350
*1375 FILLER_115_354
*1376 FILLER_115_357
*1377 FILLER_115_421
*1378 FILLER_115_425
*1379 FILLER_115_428
*1380 FILLER_115_492
*1381 FILLER_115_496
*1382 FILLER_115_499
*1383 FILLER_115_563
*1384 FILLER_115_567
*1385 FILLER_115_570
*1386 FILLER_115_634
*1387 FILLER_115_638
*1388 FILLER_115_641
*1389 FILLER_115_66
*1390 FILLER_115_70
*1391 FILLER_115_705
*1392 FILLER_115_709
*1393 FILLER_115_712
*1394 FILLER_115_73
*1395 FILLER_115_776
*1396 FILLER_115_780
*1397 FILLER_115_783
*1398 FILLER_115_847
*1399 FILLER_115_851
*1400 FILLER_115_854
*1401 FILLER_115_918
*1402 FILLER_115_922
*1403 FILLER_115_925
*1404 FILLER_115_989
*1405 FILLER_115_993
*1406 FILLER_115_996
*1407 FILLER_116_101
*1408 FILLER_116_1024
*1409 FILLER_116_1028
*1410 FILLER_116_1031
*1411 FILLER_116_1039
*1412 FILLER_116_1043
*1413 FILLER_116_105
*1414 FILLER_116_108
*1415 FILLER_116_172
*1416 FILLER_116_176
*1417 FILLER_116_179
*1418 FILLER_116_2
*1419 FILLER_116_243
*1420 FILLER_116_247
*1421 FILLER_116_250
*1422 FILLER_116_314
*1423 FILLER_116_318
*1424 FILLER_116_321
*1425 FILLER_116_34
*1426 FILLER_116_37
*1427 FILLER_116_385
*1428 FILLER_116_389
*1429 FILLER_116_392
*1430 FILLER_116_456
*1431 FILLER_116_460
*1432 FILLER_116_463
*1433 FILLER_116_527
*1434 FILLER_116_531
*1435 FILLER_116_534
*1436 FILLER_116_598
*1437 FILLER_116_602
*1438 FILLER_116_605
*1439 FILLER_116_669
*1440 FILLER_116_673
*1441 FILLER_116_676
*1442 FILLER_116_740
*1443 FILLER_116_744
*1444 FILLER_116_747
*1445 FILLER_116_811
*1446 FILLER_116_815
*1447 FILLER_116_818
*1448 FILLER_116_882
*1449 FILLER_116_886
*1450 FILLER_116_889
*1451 FILLER_116_953
*1452 FILLER_116_957
*1453 FILLER_116_960
*1454 FILLER_117_1028
*1455 FILLER_117_1044
*1456 FILLER_117_137
*1457 FILLER_117_141
*1458 FILLER_117_144
*1459 FILLER_117_2
*1460 FILLER_117_208
*1461 FILLER_117_212
*1462 FILLER_117_215
*1463 FILLER_117_279
*1464 FILLER_117_283
*1465 FILLER_117_286
*1466 FILLER_117_350
*1467 FILLER_117_354
*1468 FILLER_117_357
*1469 FILLER_117_421
*1470 FILLER_117_425
*1471 FILLER_117_428
*1472 FILLER_117_492
*1473 FILLER_117_496
*1474 FILLER_117_499
*1475 FILLER_117_563
*1476 FILLER_117_567
*1477 FILLER_117_570
*1478 FILLER_117_634
*1479 FILLER_117_638
*1480 FILLER_117_641
*1481 FILLER_117_7
*1482 FILLER_117_705
*1483 FILLER_117_709
*1484 FILLER_117_712
*1485 FILLER_117_73
*1486 FILLER_117_776
*1487 FILLER_117_780
*1488 FILLER_117_783
*1489 FILLER_117_847
*1490 FILLER_117_851
*1491 FILLER_117_854
*1492 FILLER_117_918
*1493 FILLER_117_922
*1494 FILLER_117_925
*1495 FILLER_117_989
*1496 FILLER_117_993
*1497 FILLER_117_996
*1498 FILLER_118_101
*1499 FILLER_118_1024
*1500 FILLER_118_1028
*1501 FILLER_118_1031
*1502 FILLER_118_1039
*1503 FILLER_118_1044
*1504 FILLER_118_105
*1505 FILLER_118_108
*1506 FILLER_118_172
*1507 FILLER_118_176
*1508 FILLER_118_179
*1509 FILLER_118_2
*1510 FILLER_118_243
*1511 FILLER_118_247
*1512 FILLER_118_250
*1513 FILLER_118_314
*1514 FILLER_118_318
*1515 FILLER_118_321
*1516 FILLER_118_34
*1517 FILLER_118_37
*1518 FILLER_118_385
*1519 FILLER_118_389
*1520 FILLER_118_392
*1521 FILLER_118_456
*1522 FILLER_118_460
*1523 FILLER_118_463
*1524 FILLER_118_527
*1525 FILLER_118_531
*1526 FILLER_118_534
*1527 FILLER_118_598
*1528 FILLER_118_602
*1529 FILLER_118_605
*1530 FILLER_118_669
*1531 FILLER_118_673
*1532 FILLER_118_676
*1533 FILLER_118_740
*1534 FILLER_118_744
*1535 FILLER_118_747
*1536 FILLER_118_811
*1537 FILLER_118_815
*1538 FILLER_118_818
*1539 FILLER_118_882
*1540 FILLER_118_886
*1541 FILLER_118_889
*1542 FILLER_118_953
*1543 FILLER_118_957
*1544 FILLER_118_960
*1545 FILLER_119_1028
*1546 FILLER_119_1044
*1547 FILLER_119_137
*1548 FILLER_119_141
*1549 FILLER_119_144
*1550 FILLER_119_2
*1551 FILLER_119_208
*1552 FILLER_119_212
*1553 FILLER_119_215
*1554 FILLER_119_279
*1555 FILLER_119_283
*1556 FILLER_119_286
*1557 FILLER_119_350
*1558 FILLER_119_354
*1559 FILLER_119_357
*1560 FILLER_119_421
*1561 FILLER_119_425
*1562 FILLER_119_428
*1563 FILLER_119_492
*1564 FILLER_119_496
*1565 FILLER_119_499
*1566 FILLER_119_563
*1567 FILLER_119_567
*1568 FILLER_119_570
*1569 FILLER_119_634
*1570 FILLER_119_638
*1571 FILLER_119_641
*1572 FILLER_119_7
*1573 FILLER_119_705
*1574 FILLER_119_709
*1575 FILLER_119_712
*1576 FILLER_119_73
*1577 FILLER_119_776
*1578 FILLER_119_780
*1579 FILLER_119_783
*1580 FILLER_119_847
*1581 FILLER_119_851
*1582 FILLER_119_854
*1583 FILLER_119_918
*1584 FILLER_119_922
*1585 FILLER_119_925