*SPEF "ieee 1481-1999"
*DESIGN "tiny_user_project"
*DATE "11:11:11 Fri 11 11, 1111"
*VENDOR "OpenRCX"
*PROGRAM "Parallel Extraction"
*VERSION "1.0"
*DESIGN_FLOW "NAME_SCOPE LOCAL" "PIN_CAP NONE"
*DIVIDER /
*DELIMITER :
*BUS_DELIMITER []
*T_UNIT 1 NS
*C_UNIT 1 PF
*R_UNIT 1 OHM
*L_UNIT 1 HENRY

*NAME_MAP
*1 io_in[0]
*2 io_in[10]
*3 io_in[11]
*4 io_in[12]
*5 io_in[13]
*6 io_in[14]
*7 io_in[15]
*8 io_in[16]
*9 io_in[17]
*10 io_in[18]
*11 io_in[19]
*12 io_in[1]
*13 io_in[20]
*14 io_in[21]
*15 io_in[22]
*16 io_in[23]
*17 io_in[24]
*18 io_in[25]
*19 io_in[26]
*20 io_in[27]
*21 io_in[28]
*22 io_in[29]
*23 io_in[2]
*24 io_in[30]
*25 io_in[31]
*26 io_in[32]
*27 io_in[33]
*28 io_in[34]
*29 io_in[35]
*30 io_in[36]
*31 io_in[37]
*32 io_in[3]
*33 io_in[4]
*34 io_in[5]
*35 io_in[6]
*36 io_in[7]
*37 io_in[8]
*38 io_in[9]
*39 net108
*40 net118
*41 net119
*42 net120
*43 net121
*44 net122
*45 net123
*46 net124
*47 net125
*48 net126
*49 net127
*50 net109
*51 net128
*52 net129
*53 net130
*54 net131
*55 net132
*56 net133
*57 net134
*58 net135
*59 net136
*60 net137
*61 net110
*62 net138
*63 net139
*64 net140
*65 net141
*66 net142
*67 net143
*68 net144
*69 net145
*70 net111
*71 net112
*72 net113
*73 net114
*74 net115
*75 net116
*76 net117
*77 net78
*78 net88
*79 net89
*80 net90
*81 net91
*82 net92
*83 net93
*84 io_out[16]
*85 io_out[17]
*86 io_out[18]
*87 io_out[19]
*88 net79
*89 io_out[20]
*90 io_out[21]
*91 io_out[22]
*92 io_out[23]
*93 net94
*94 net95
*95 net96
*96 net97
*97 net98
*98 net99
*99 net80
*100 net100
*101 net101
*102 net102
*103 net103
*104 net104
*105 net105
*106 net106
*107 net107
*108 net81
*109 net82
*110 net83
*111 net84
*112 net85
*113 net86
*114 net87
*115 la_data_in[0]
*116 la_data_in[10]
*117 la_data_in[11]
*118 la_data_in[12]
*119 la_data_in[13]
*120 la_data_in[14]
*121 la_data_in[15]
*122 la_data_in[16]
*123 la_data_in[17]
*124 la_data_in[18]
*125 la_data_in[19]
*126 la_data_in[1]
*127 la_data_in[20]
*128 la_data_in[21]
*129 la_data_in[22]
*130 la_data_in[23]
*131 la_data_in[24]
*132 la_data_in[25]
*133 la_data_in[26]
*134 la_data_in[27]
*135 la_data_in[28]
*136 la_data_in[29]
*137 la_data_in[2]
*138 la_data_in[30]
*139 la_data_in[31]
*140 la_data_in[32]
*141 la_data_in[33]
*142 la_data_in[34]
*143 la_data_in[35]
*144 la_data_in[36]
*145 la_data_in[37]
*146 la_data_in[38]
*147 la_data_in[39]
*148 la_data_in[3]
*149 la_data_in[40]
*150 la_data_in[41]
*151 la_data_in[42]
*152 la_data_in[43]
*153 la_data_in[44]
*154 la_data_in[45]
*155 la_data_in[46]
*156 la_data_in[47]
*157 la_data_in[48]
*158 la_data_in[49]
*159 la_data_in[4]
*160 la_data_in[50]
*161 la_data_in[51]
*162 la_data_in[52]
*163 la_data_in[53]
*164 la_data_in[54]
*165 la_data_in[55]
*166 la_data_in[56]
*167 la_data_in[57]
*168 la_data_in[58]
*169 la_data_in[59]
*170 la_data_in[5]
*171 la_data_in[60]
*172 la_data_in[61]
*173 la_data_in[62]
*174 la_data_in[63]
*175 la_data_in[6]
*176 la_data_in[7]
*177 la_data_in[8]
*178 la_data_in[9]
*179 net14
*180 net24
*181 net25
*182 net26
*183 net27
*184 net28
*185 net29
*186 net30
*187 net31
*188 net32
*189 net33
*190 net15
*191 net34
*192 net35
*193 net36
*194 net37
*195 net38
*196 net39
*197 net40
*198 net41
*199 net42
*200 net43
*201 net16
*202 net44
*203 net45
*204 net46
*205 net47
*206 net48
*207 net49
*208 net50
*209 net51
*210 net52
*211 net53
*212 net17
*213 net54
*214 net55
*215 net56
*216 net57
*217 net58
*218 net59
*219 net60
*220 net61
*221 net62
*222 net63
*223 net18
*224 net64
*225 net65
*226 net66
*227 net67
*228 net68
*229 net69
*230 net70
*231 net71
*232 net72
*233 net73
*234 net19
*235 net74
*236 net75
*237 net76
*238 net77
*239 net20
*240 net21
*241 net22
*242 net23
*243 la_oenb[0]
*244 la_oenb[10]
*245 la_oenb[11]
*246 la_oenb[12]
*247 la_oenb[13]
*248 la_oenb[14]
*249 la_oenb[15]
*250 la_oenb[16]
*251 la_oenb[17]
*252 la_oenb[18]
*253 la_oenb[19]
*254 la_oenb[1]
*255 la_oenb[20]
*256 la_oenb[21]
*257 la_oenb[22]
*258 la_oenb[23]
*259 la_oenb[24]
*260 la_oenb[25]
*261 la_oenb[26]
*262 la_oenb[27]
*263 la_oenb[28]
*264 la_oenb[29]
*265 la_oenb[2]
*266 la_oenb[30]
*267 la_oenb[31]
*268 la_oenb[32]
*269 la_oenb[33]
*270 la_oenb[34]
*271 la_oenb[35]
*272 la_oenb[36]
*273 la_oenb[37]
*274 la_oenb[38]
*275 la_oenb[39]
*276 la_oenb[3]
*277 la_oenb[40]
*278 la_oenb[41]
*279 la_oenb[42]
*280 la_oenb[43]
*281 la_oenb[44]
*282 la_oenb[45]
*283 la_oenb[46]
*284 la_oenb[47]
*285 la_oenb[48]
*286 la_oenb[49]
*287 la_oenb[4]
*288 la_oenb[50]
*289 la_oenb[51]
*290 la_oenb[52]
*291 la_oenb[53]
*292 la_oenb[54]
*293 la_oenb[55]
*294 la_oenb[56]
*295 la_oenb[57]
*296 la_oenb[58]
*297 la_oenb[59]
*298 la_oenb[5]
*299 la_oenb[60]
*300 la_oenb[61]
*301 la_oenb[62]
*302 la_oenb[63]
*303 la_oenb[6]
*304 la_oenb[7]
*305 la_oenb[8]
*306 la_oenb[9]
*307 user_clock2
*308 net146
*309 net147
*310 net148
*313 wb_clk_i
*314 wb_rst_i
*315 net149
*316 wbs_adr_i[0]
*317 wbs_adr_i[10]
*318 wbs_adr_i[11]
*319 wbs_adr_i[12]
*320 wbs_adr_i[13]
*321 wbs_adr_i[14]
*322 wbs_adr_i[15]
*323 wbs_adr_i[16]
*324 wbs_adr_i[17]
*325 wbs_adr_i[18]
*326 wbs_adr_i[19]
*327 wbs_adr_i[1]
*328 wbs_adr_i[20]
*329 wbs_adr_i[21]
*330 wbs_adr_i[22]
*331 wbs_adr_i[23]
*332 wbs_adr_i[24]
*333 wbs_adr_i[25]
*334 wbs_adr_i[26]
*335 wbs_adr_i[27]
*336 wbs_adr_i[28]
*337 wbs_adr_i[29]
*338 wbs_adr_i[2]
*339 wbs_adr_i[30]
*340 wbs_adr_i[31]
*341 wbs_adr_i[3]
*342 wbs_adr_i[4]
*343 wbs_adr_i[5]
*344 wbs_adr_i[6]
*345 wbs_adr_i[7]
*346 wbs_adr_i[8]
*347 wbs_adr_i[9]
*348 wbs_cyc_i
*349 wbs_dat_i[0]
*350 wbs_dat_i[10]
*351 wbs_dat_i[11]
*352 wbs_dat_i[12]
*353 wbs_dat_i[13]
*354 wbs_dat_i[14]
*355 wbs_dat_i[15]
*356 wbs_dat_i[16]
*357 wbs_dat_i[17]
*358 wbs_dat_i[18]
*359 wbs_dat_i[19]
*360 wbs_dat_i[1]
*361 wbs_dat_i[20]
*362 wbs_dat_i[21]
*363 wbs_dat_i[22]
*364 wbs_dat_i[23]
*365 wbs_dat_i[24]
*366 wbs_dat_i[25]
*367 wbs_dat_i[26]
*368 wbs_dat_i[27]
*369 wbs_dat_i[28]
*370 wbs_dat_i[29]
*371 wbs_dat_i[2]
*372 wbs_dat_i[30]
*373 wbs_dat_i[31]
*374 wbs_dat_i[3]
*375 wbs_dat_i[4]
*376 wbs_dat_i[5]
*377 wbs_dat_i[6]
*378 wbs_dat_i[7]
*379 wbs_dat_i[8]
*380 wbs_dat_i[9]
*381 net150
*382 net160
*383 net161
*384 net162
*385 net163
*386 net164
*387 net165
*388 net166
*389 net167
*390 net168
*391 net169
*392 net151
*393 net170
*394 net171
*395 net172
*396 net173
*397 net174
*398 net175
*399 net176
*400 net177
*401 net178
*402 net179
*403 net152
*404 net180
*405 net181
*406 net153
*407 net154
*408 net155
*409 net156
*410 net157
*411 net158
*412 net159
*413 wbs_sel_i[0]
*414 wbs_sel_i[1]
*415 wbs_sel_i[2]
*416 wbs_sel_i[3]
*417 wbs_stb_i
*418 wbs_we_i
*419 _000_
*420 _001_
*421 _002_
*422 _003_
*423 _004_
*424 _005_
*425 _006_
*426 _007_
*427 _008_
*428 _009_
*429 _010_
*430 _011_
*431 _012_
*432 _013_
*433 _014_
*434 _015_
*435 _016_
*436 _017_
*437 _018_
*438 _019_
*439 _020_
*440 _021_
*441 _022_
*442 _023_
*443 _024_
*444 _025_
*445 _026_
*446 _027_
*447 _028_
*448 _029_
*449 _030_
*450 _031_
*451 _032_
*452 _033_
*453 _034_
*454 _035_
*455 _036_
*456 _037_
*457 _038_
*458 _039_
*459 _040_
*460 _041_
*461 _042_
*462 _043_
*463 _044_
*464 _045_
*465 _046_
*466 _047_
*467 _048_
*468 _049_
*469 _050_
*470 _051_
*471 _052_
*472 _053_
*473 _054_
*474 _055_
*475 _056_
*476 _057_
*477 _058_
*478 _059_
*479 _060_
*480 _061_
*481 _062_
*482 _063_
*483 _064_
*484 _065_
*485 _066_
*486 _067_
*487 _068_
*488 _069_
*489 _070_
*490 _071_
*491 _072_
*492 _073_
*493 _074_
*494 _075_
*495 _076_
*496 _077_
*497 _078_
*498 _079_
*499 _080_
*500 _081_
*501 _082_
*502 _083_
*503 _084_
*504 _085_
*505 _086_
*506 _087_
*507 mod\.flipflop10\.d
*508 mod\.flipflop10\.q
*509 mod\.flipflop11\.d
*510 mod\.flipflop11\.q
*511 mod\.flipflop12\.d
*512 mod\.flipflop12\.q
*513 mod\.flipflop13\.d
*514 mod\.flipflop13\.q
*515 mod\.flipflop14\.d
*516 mod\.flipflop14\.q
*517 mod\.flipflop15\.q
*518 mod\.flipflop16\.q
*519 mod\.flipflop17\.q
*520 mod\.flipflop18\.d
*521 mod\.flipflop18\.q
*522 mod\.flipflop19\.d
*523 mod\.flipflop19\.q
*524 mod\.flipflop2\.q
*525 mod\.flipflop20\.d
*526 mod\.flipflop20\.q
*527 mod\.flipflop21\.q
*528 mod\.flipflop22\.q
*529 mod\.flipflop23\.q
*530 mod\.flipflop24\.q
*531 mod\.flipflop25\.q
*532 mod\.flipflop26\.q
*533 mod\.flipflop27\.q
*534 mod\.flipflop28\.q
*535 mod\.flipflop29\.q
*536 mod\.flipflop30\.q
*537 mod\.flipflop31\.q
*538 mod\.flipflop32\.q
*539 mod\.flipflop33\.q
*540 mod\.flipflop34\.q
*541 mod\.flipflop35\.q
*542 mod\.flipflop36\.q
*543 mod\.flipflop37\.q
*544 mod\.flipflop38\.q
*545 mod\.flipflop39\.q
*546 mod\.flipflop4\.d
*547 mod\.flipflop40\.q
*548 mod\.flipflop41\.q
*549 mod\.flipflop42\.q
*550 mod\.flipflop43\.q
*551 mod\.flipflop44\.q
*552 mod\.flipflop45\.q
*553 mod\.flipflop46\.q
*554 mod\.flipflop47\.q
*555 mod\.flipflop48\.q
*556 mod\.flipflop49\.q
*557 mod\.flipflop5\.d
*558 mod\.flipflop50\.q
*559 mod\.flipflop51\.q
*560 mod\.flipflop52\.q
*561 mod\.flipflop53\.q
*562 mod\.flipflop54\.q
*563 mod\.flipflop55\.q
*564 mod\.flipflop56\.q
*565 mod\.flipflop57\.q
*566 mod\.flipflop58\.q
*567 mod\.flipflop59\.q
*568 mod\.flipflop60\.q
*569 mod\.flipflop61\.q
*570 mod\.flipflop65\.q
*571 net1
*572 net10
*573 net11
*574 net12
*575 net13
*576 net2
*577 net3
*578 net4
*579 net5
*580 net6
*581 net7
*582 net8
*583 net9
*584 ANTENNA__088__I
*585 ANTENNA__089__I
*586 ANTENNA__090__I
*587 ANTENNA__091__I
*588 ANTENNA__092__I
*589 ANTENNA__093__I0
*590 ANTENNA__093__I1
*591 ANTENNA__093__S
*592 ANTENNA__094__A1
*593 ANTENNA__095__I
*594 ANTENNA__096__I
*595 ANTENNA__097__I
*596 ANTENNA__098__I0
*597 ANTENNA__098__I1
*598 ANTENNA__098__S
*599 ANTENNA__099__A1
*600 ANTENNA__099__A2
*601 ANTENNA__100__I
*602 ANTENNA__101__I
*603 ANTENNA__102__I
*604 ANTENNA__103__S
*605 ANTENNA__104__A1
*606 ANTENNA__104__A2
*607 ANTENNA__105__I
*608 ANTENNA__106__I
*609 ANTENNA__107__I0
*610 ANTENNA__107__I1
*611 ANTENNA__107__S
*612 ANTENNA__108__I
*613 ANTENNA__109__A1
*614 ANTENNA__109__B
*615 ANTENNA__110__A1
*616 ANTENNA__110__A2
*617 ANTENNA__110__A3
*618 ANTENNA__110__B1
*619 ANTENNA__110__B2
*620 ANTENNA__111__I0
*621 ANTENNA__111__S
*622 ANTENNA__112__A1
*623 ANTENNA__112__A2
*624 ANTENNA__113__I0
*625 ANTENNA__113__I1
*626 ANTENNA__113__S
*627 ANTENNA__114__A1
*628 ANTENNA__114__A2
*629 ANTENNA__115__I0
*630 ANTENNA__115__I1
*631 ANTENNA__115__S
*632 ANTENNA__116__A1
*633 ANTENNA__117__I0
*634 ANTENNA__117__I1
*635 ANTENNA__117__S
*636 ANTENNA__118__A1
*637 ANTENNA__118__A2
*638 ANTENNA__118__B
*639 ANTENNA__119__A1
*640 ANTENNA__119__A2
*641 ANTENNA__119__A3
*642 ANTENNA__119__B2
*643 ANTENNA__120__I0
*644 ANTENNA__120__I1
*645 ANTENNA__120__S
*646 ANTENNA__121__A1
*647 ANTENNA__121__A2
*648 ANTENNA__122__I0
*649 ANTENNA__122__I1
*650 ANTENNA__122__S
*651 ANTENNA__123__A1
*652 ANTENNA__124__I0
*653 ANTENNA__124__I1
*654 ANTENNA__124__S
*655 ANTENNA__125__A1
*656 ANTENNA__125__A2
*657 ANTENNA__126__I0
*658 ANTENNA__126__I1
*659 ANTENNA__126__S
*660 ANTENNA__127__A1
*661 ANTENNA__127__A2
*662 ANTENNA__127__B
*663 ANTENNA__128__A1
*664 ANTENNA__128__A2
*665 ANTENNA__128__A3
*666 ANTENNA__128__B1
*667 ANTENNA__128__B2
*668 ANTENNA__129__I0
*669 ANTENNA__129__I1
*670 ANTENNA__129__S
*671 ANTENNA__130__A1
*672 ANTENNA__130__A2
*673 ANTENNA__131__I0
*674 ANTENNA__131__I1
*675 ANTENNA__131__S
*676 ANTENNA__132__A1
*677 ANTENNA__132__A2
*678 ANTENNA__133__I0
*679 ANTENNA__133__I1
*680 ANTENNA__133__S
*681 ANTENNA__134__A1
*682 ANTENNA__134__A2
*683 ANTENNA__135__I0
*684 ANTENNA__135__I1
*685 ANTENNA__135__S
*686 ANTENNA__136__A1
*687 ANTENNA__136__B
*688 ANTENNA__137__A1
*689 ANTENNA__137__A2
*690 ANTENNA__137__A3
*691 ANTENNA__137__B1
*692 ANTENNA__137__B2
*693 ANTENNA__138__I
*694 ANTENNA__139__I
*695 ANTENNA__140__I
*696 ANTENNA__141__I0
*697 ANTENNA__141__I1
*698 ANTENNA__141__S
*699 ANTENNA__142__A1
*700 ANTENNA__143__I
*701 ANTENNA__144__I
*702 ANTENNA__145__I0
*703 ANTENNA__145__I1
*704 ANTENNA__145__S
*705 ANTENNA__146__A1
*706 ANTENNA__146__A2
*707 ANTENNA__147__I
*708 ANTENNA__148__I
*709 ANTENNA__149__I0
*710 ANTENNA__149__I1
*711 ANTENNA__149__S
*712 ANTENNA__150__A1
*713 ANTENNA__150__A2
*714 ANTENNA__151__I
*715 ANTENNA__152__I
*716 ANTENNA__153__I0
*717 ANTENNA__153__I1
*718 ANTENNA__153__S
*719 ANTENNA__154__I
*720 ANTENNA__155__A1
*721 ANTENNA__155__A2
*722 ANTENNA__155__B
*723 ANTENNA__156__A1
*724 ANTENNA__156__A2
*725 ANTENNA__156__A3
*726 ANTENNA__157__I0
*727 ANTENNA__157__I1
*728 ANTENNA__157__S
*729 ANTENNA__158__A1
*730 ANTENNA__158__A2
*731 ANTENNA__159__I0
*732 ANTENNA__159__I1
*733 ANTENNA__159__S
*734 ANTENNA__160__A1
*735 ANTENNA__160__A2
*736 ANTENNA__161__I0
*737 ANTENNA__161__I1
*738 ANTENNA__161__S
*739 ANTENNA__162__A1
*740 ANTENNA__163__I0
*741 ANTENNA__163__I1
*742 ANTENNA__163__S
*743 ANTENNA__164__A1
*744 ANTENNA__164__A2
*745 ANTENNA__164__B
*746 ANTENNA__165__A1
*747 ANTENNA__165__A2
*748 ANTENNA__165__A3
*749 ANTENNA__166__I0
*750 ANTENNA__166__I1
*751 ANTENNA__166__S
*752 ANTENNA__167__A1
*753 ANTENNA__167__A2
*754 ANTENNA__168__I0
*755 ANTENNA__168__I1
*756 ANTENNA__168__S
*757 ANTENNA__169__A1
*758 ANTENNA__169__A2
*759 ANTENNA__170__I0
*760 ANTENNA__170__S
*761 ANTENNA__171__A1
*762 ANTENNA__171__A2
*763 ANTENNA__172__I0
*764 ANTENNA__172__S
*765 ANTENNA__173__A1
*766 ANTENNA__173__A2
*767 ANTENNA__173__B
*768 ANTENNA__174__A1
*769 ANTENNA__174__A2
*770 ANTENNA__174__A3
*771 ANTENNA__174__B1
*772 ANTENNA__174__B2
*773 ANTENNA__175__I0
*774 ANTENNA__175__S
*775 ANTENNA__176__A1
*776 ANTENNA__176__A2
*777 ANTENNA__177__I0
*778 ANTENNA__177__I1
*779 ANTENNA__177__S
*780 ANTENNA__178__A1
*781 ANTENNA__179__I1
*782 ANTENNA__179__S
*783 ANTENNA__180__A1
*784 ANTENNA__180__A2
*785 ANTENNA__181__I0
*786 ANTENNA__181__I1
*787 ANTENNA__181__S
*788 ANTENNA__182__A1
*789 ANTENNA__182__B
*790 ANTENNA__183__A1
*791 ANTENNA__183__A3
*792 ANTENNA__183__B1
*793 ANTENNA__183__B2
*794 ANTENNA__184__CLK
*795 ANTENNA__184__D
*796 ANTENNA__185__CLK
*797 ANTENNA__185__D
*798 ANTENNA__186__CLK
*799 ANTENNA__186__D
*800 ANTENNA__187__CLK
*801 ANTENNA__187__D
*802 ANTENNA__188__CLK
*803 ANTENNA__188__D
*804 ANTENNA__189__CLK
*805 ANTENNA__189__D
*806 ANTENNA__190__CLK
*807 ANTENNA__190__D
*808 ANTENNA__191__CLK
*809 ANTENNA__191__D
*810 ANTENNA__192__CLK
*811 ANTENNA__192__D
*812 ANTENNA__193__CLK
*813 ANTENNA__193__D
*814 ANTENNA__194__CLK
*815 ANTENNA__194__D
*816 ANTENNA__195__CLK
*817 ANTENNA__195__D
*818 ANTENNA__196__CLK
*819 ANTENNA__196__D
*820 ANTENNA__197__CLK
*821 ANTENNA__197__D
*822 ANTENNA__198__CLK
*823 ANTENNA__198__D
*824 ANTENNA__199__CLK
*825 ANTENNA__199__D
*826 ANTENNA__200__CLK
*827 ANTENNA__201__CLK
*828 ANTENNA__201__D
*829 ANTENNA__202__CLK
*830 ANTENNA__202__D
*831 ANTENNA__203__CLK
*832 ANTENNA__203__D
*833 ANTENNA__204__CLK
*834 ANTENNA__204__D
*835 ANTENNA__205__CLK
*836 ANTENNA__206__CLK
*837 ANTENNA__206__D
*838 ANTENNA__207__CLK
*839 ANTENNA__207__D
*840 ANTENNA__208__CLK
*841 ANTENNA__208__D
*842 ANTENNA__209__CLK
*843 ANTENNA__209__D
*844 ANTENNA__210__CLK
*845 ANTENNA__210__D
*846 ANTENNA__211__CLK
*847 ANTENNA__211__D
*848 ANTENNA__212__CLK
*849 ANTENNA__212__D
*850 ANTENNA__213__CLK
*851 ANTENNA__213__D
*852 ANTENNA__214__CLK
*853 ANTENNA__214__D
*854 ANTENNA__215__CLK
*855 ANTENNA__215__D
*856 ANTENNA__216__CLK
*857 ANTENNA__216__D
*858 ANTENNA__217__CLK
*859 ANTENNA__217__D
*860 ANTENNA__218__CLK
*861 ANTENNA__218__D
*862 ANTENNA__219__CLK
*863 ANTENNA__219__D
*864 ANTENNA__220__CLK
*865 ANTENNA__220__D
*866 ANTENNA__221__CLK
*867 ANTENNA__221__D
*868 ANTENNA__222__CLK
*869 ANTENNA__222__D
*870 ANTENNA__223__CLK
*871 ANTENNA__223__D
*872 ANTENNA__224__CLK
*873 ANTENNA__224__D
*874 ANTENNA__225__CLK
*875 ANTENNA__225__D
*876 ANTENNA__226__CLK
*877 ANTENNA__226__D
*878 ANTENNA__227__CLK
*879 ANTENNA__228__CLK
*880 ANTENNA__228__D
*881 ANTENNA__229__CLK
*882 ANTENNA__230__CLK
*883 ANTENNA__230__D
*884 ANTENNA__231__CLK
*885 ANTENNA__231__D
*886 ANTENNA__232__CLK
*887 ANTENNA__233__CLK
*888 ANTENNA__233__D
*889 ANTENNA__234__CLK
*890 ANTENNA__234__D
*891 ANTENNA__235__CLK
*892 ANTENNA__235__D
*893 ANTENNA__236__CLK
*894 ANTENNA__236__D
*895 ANTENNA__237__CLK
*896 ANTENNA__238__CLK
*897 ANTENNA__238__D
*898 ANTENNA__239__CLK
*899 ANTENNA__239__D
*900 ANTENNA__240__CLK
*901 ANTENNA__241__CLK
*902 ANTENNA__241__D
*903 ANTENNA__242__CLK
*904 ANTENNA__242__D
*905 ANTENNA__243__CLK
*906 ANTENNA__243__D
*907 ANTENNA__244__CLK
*908 ANTENNA__244__D
*909 ANTENNA__245__CLK
*910 ANTENNA__245__D
*911 ANTENNA__246__CLK
*912 ANTENNA__246__D
*913 ANTENNA__247__CLK
*914 ANTENNA__247__D
*915 ANTENNA_input1_I
*916 ANTENNA_input2_I
*917 ANTENNA_input3_I
*918 ANTENNA_input4_I
*919 ANTENNA_input5_I
*920 ANTENNA_output10_I
*921 ANTENNA_output11_I
*922 ANTENNA_output12_I
*923 ANTENNA_output13_I
*924 ANTENNA_output6_I
*925 ANTENNA_output7_I
*926 ANTENNA_output8_I
*927 ANTENNA_output9_I
*928 FILLER_0_101
*929 FILLER_0_1011
*930 FILLER_0_1017
*931 FILLER_0_1025
*932 FILLER_0_1029
*933 FILLER_0_1044
*934 FILLER_0_107
*935 FILLER_0_11
*936 FILLER_0_115
*937 FILLER_0_119
*938 FILLER_0_135
*939 FILLER_0_139
*940 FILLER_0_142
*941 FILLER_0_174
*942 FILLER_0_177
*943 FILLER_0_2
*944 FILLER_0_209
*945 FILLER_0_212
*946 FILLER_0_228
*947 FILLER_0_233
*948 FILLER_0_237
*949 FILLER_0_239
*950 FILLER_0_244
*951 FILLER_0_247
*952 FILLER_0_251
*953 FILLER_0_257
*954 FILLER_0_263
*955 FILLER_0_27
*956 FILLER_0_279
*957 FILLER_0_282
*958 FILLER_0_287
*959 FILLER_0_299
*960 FILLER_0_317
*961 FILLER_0_323
*962 FILLER_0_329
*963 FILLER_0_345
*964 FILLER_0_349
*965 FILLER_0_352
*966 FILLER_0_368
*967 FILLER_0_37
*968 FILLER_0_372
*969 FILLER_0_377
*970 FILLER_0_387
*971 FILLER_0_395
*972 FILLER_0_411
*973 FILLER_0_419
*974 FILLER_0_422
*975 FILLER_0_426
*976 FILLER_0_431
*977 FILLER_0_447
*978 FILLER_0_449
*979 FILLER_0_454
*980 FILLER_0_457
*981 FILLER_0_462
*982 FILLER_0_466
*983 FILLER_0_468
*984 FILLER_0_473
*985 FILLER_0_485
*986 FILLER_0_489
*987 FILLER_0_492
*988 FILLER_0_508
*989 FILLER_0_516
*990 FILLER_0_521
*991 FILLER_0_527
*992 FILLER_0_53
*993 FILLER_0_543
*994 FILLER_0_551
*995 FILLER_0_559
*996 FILLER_0_562
*997 FILLER_0_59
*998 FILLER_0_594
*999 FILLER_0_597
*1000 FILLER_0_6
*1001 FILLER_0_602
*1002 FILLER_0_608
*1003 FILLER_0_612
*1004 FILLER_0_617
*1005 FILLER_0_625
*1006 FILLER_0_629
*1007 FILLER_0_632
*1008 FILLER_0_65
*1009 FILLER_0_664
*1010 FILLER_0_667
*1011 FILLER_0_672
*1012 FILLER_0_676
*1013 FILLER_0_678
*1014 FILLER_0_683
*1015 FILLER_0_69
*1016 FILLER_0_695
*1017 FILLER_0_699
*1018 FILLER_0_702
*1019 FILLER_0_718
*1020 FILLER_0_72
*1021 FILLER_0_726
*1022 FILLER_0_731
*1023 FILLER_0_737
*1024 FILLER_0_749
*1025 FILLER_0_761
*1026 FILLER_0_769
*1027 FILLER_0_77
*1028 FILLER_0_772
*1029 FILLER_0_777
*1030 FILLER_0_793
*1031 FILLER_0_801
*1032 FILLER_0_807
*1033 FILLER_0_827
*1034 FILLER_0_835
*1035 FILLER_0_839
*1036 FILLER_0_842
*1037 FILLER_0_874
*1038 FILLER_0_877
*1039 FILLER_0_885
*1040 FILLER_0_893
*1041 FILLER_0_909
*1042 FILLER_0_912
*1043 FILLER_0_93
*1044 FILLER_0_944
*1045 FILLER_0_947
*1046 FILLER_0_952
*1047 FILLER_0_960
*1048 FILLER_0_964
*1049 FILLER_0_966
*1050 FILLER_0_971
*1051 FILLER_0_979
*1052 FILLER_0_982
*1053 FILLER_0_987
*1054 FILLER_0_995
*1055 FILLER_100_101
*1056 FILLER_100_1024
*1057 FILLER_100_1028
*1058 FILLER_100_1031
*1059 FILLER_100_1039
*1060 FILLER_100_1043
*1061 FILLER_100_105
*1062 FILLER_100_108
*1063 FILLER_100_172
*1064 FILLER_100_176
*1065 FILLER_100_179
*1066 FILLER_100_2
*1067 FILLER_100_243
*1068 FILLER_100_247
*1069 FILLER_100_250
*1070 FILLER_100_314
*1071 FILLER_100_318
*1072 FILLER_100_321
*1073 FILLER_100_34
*1074 FILLER_100_37
*1075 FILLER_100_385
*1076 FILLER_100_389
*1077 FILLER_100_392
*1078 FILLER_100_456
*1079 FILLER_100_460
*1080 FILLER_100_463
*1081 FILLER_100_527
*1082 FILLER_100_531
*1083 FILLER_100_534
*1084 FILLER_100_598
*1085 FILLER_100_602
*1086 FILLER_100_605
*1087 FILLER_100_669
*1088 FILLER_100_673
*1089 FILLER_100_676
*1090 FILLER_100_740
*1091 FILLER_100_744
*1092 FILLER_100_747
*1093 FILLER_100_811
*1094 FILLER_100_815
*1095 FILLER_100_818
*1096 FILLER_100_882
*1097 FILLER_100_886
*1098 FILLER_100_889
*1099 FILLER_100_953
*1100 FILLER_100_957
*1101 FILLER_100_960
*1102 FILLER_101_1028
*1103 FILLER_101_1036
*1104 FILLER_101_1044
*1105 FILLER_101_137
*1106 FILLER_101_141
*1107 FILLER_101_144
*1108 FILLER_101_2
*1109 FILLER_101_208
*1110 FILLER_101_212
*1111 FILLER_101_215
*1112 FILLER_101_279
*1113 FILLER_101_283
*1114 FILLER_101_286
*1115 FILLER_101_350
*1116 FILLER_101_354
*1117 FILLER_101_357
*1118 FILLER_101_421
*1119 FILLER_101_425
*1120 FILLER_101_428
*1121 FILLER_101_492
*1122 FILLER_101_496
*1123 FILLER_101_499
*1124 FILLER_101_563
*1125 FILLER_101_567
*1126 FILLER_101_570
*1127 FILLER_101_634
*1128 FILLER_101_638
*1129 FILLER_101_641
*1130 FILLER_101_66
*1131 FILLER_101_70
*1132 FILLER_101_705
*1133 FILLER_101_709
*1134 FILLER_101_712
*1135 FILLER_101_73
*1136 FILLER_101_776
*1137 FILLER_101_780
*1138 FILLER_101_783
*1139 FILLER_101_847
*1140 FILLER_101_851
*1141 FILLER_101_854
*1142 FILLER_101_918
*1143 FILLER_101_922
*1144 FILLER_101_925
*1145 FILLER_101_989
*1146 FILLER_101_993
*1147 FILLER_101_996
*1148 FILLER_102_101
*1149 FILLER_102_1024
*1150 FILLER_102_1028
*1151 FILLER_102_1031
*1152 FILLER_102_1039
*1153 FILLER_102_1043
*1154 FILLER_102_105
*1155 FILLER_102_108
*1156 FILLER_102_13
*1157 FILLER_102_172
*1158 FILLER_102_176
*1159 FILLER_102_179
*1160 FILLER_102_2
*1161 FILLER_102_243
*1162 FILLER_102_247
*1163 FILLER_102_250
*1164 FILLER_102_29
*1165 FILLER_102_314
*1166 FILLER_102_318
*1167 FILLER_102_321
*1168 FILLER_102_33
*1169 FILLER_102_37
*1170 FILLER_102_385
*1171 FILLER_102_389
*1172 FILLER_102_392
*1173 FILLER_102_456
*1174 FILLER_102_460
*1175 FILLER_102_463
*1176 FILLER_102_527
*1177 FILLER_102_531
*1178 FILLER_102_534
*1179 FILLER_102_598
*1180 FILLER_102_602
*1181 FILLER_102_605
*1182 FILLER_102_669
*1183 FILLER_102_673
*1184 FILLER_102_676
*1185 FILLER_102_7
*1186 FILLER_102_740
*1187 FILLER_102_744
*1188 FILLER_102_747
*1189 FILLER_102_811
*1190 FILLER_102_815
*1191 FILLER_102_818
*1192 FILLER_102_882
*1193 FILLER_102_886
*1194 FILLER_102_889
*1195 FILLER_102_953
*1196 FILLER_102_957
*1197 FILLER_102_960
*1198 FILLER_103_1028
*1199 FILLER_103_1036
*1200 FILLER_103_1044
*1201 FILLER_103_137
*1202 FILLER_103_141
*1203 FILLER_103_144
*1204 FILLER_103_2
*1205 FILLER_103_208
*1206 FILLER_103_212
*1207 FILLER_103_215
*1208 FILLER_103_279
*1209 FILLER_103_283
*1210 FILLER_103_286
*1211 FILLER_103_350
*1212 FILLER_103_354
*1213 FILLER_103_357
*1214 FILLER_103_421
*1215 FILLER_103_425
*1216 FILLER_103_428
*1217 FILLER_103_492
*1218 FILLER_103_496
*1219 FILLER_103_499
*1220 FILLER_103_563
*1221 FILLER_103_567
*1222 FILLER_103_570
*1223 FILLER_103_634
*1224 FILLER_103_638
*1225 FILLER_103_641
*1226 FILLER_103_66
*1227 FILLER_103_70
*1228 FILLER_103_705
*1229 FILLER_103_709
*1230 FILLER_103_712
*1231 FILLER_103_73
*1232 FILLER_103_776
*1233 FILLER_103_780
*1234 FILLER_103_783
*1235 FILLER_103_847
*1236 FILLER_103_851
*1237 FILLER_103_854
*1238 FILLER_103_918
*1239 FILLER_103_922
*1240 FILLER_103_925
*1241 FILLER_103_989
*1242 FILLER_103_993
*1243 FILLER_103_996
*1244 FILLER_104_101
*1245 FILLER_104_1024
*1246 FILLER_104_1028
*1247 FILLER_104_1031
*1248 FILLER_104_1039
*1249 FILLER_104_1043
*1250 FILLER_104_105
*1251 FILLER_104_108
*1252 FILLER_104_17
*1253 FILLER_104_172
*1254 FILLER_104_176
*1255 FILLER_104_179
*1256 FILLER_104_2
*1257 FILLER_104_21
*1258 FILLER_104_243
*1259 FILLER_104_247
*1260 FILLER_104_250
*1261 FILLER_104_29
*1262 FILLER_104_314
*1263 FILLER_104_318
*1264 FILLER_104_321
*1265 FILLER_104_33
*1266 FILLER_104_37
*1267 FILLER_104_385
*1268 FILLER_104_389
*1269 FILLER_104_392
*1270 FILLER_104_456
*1271 FILLER_104_460
*1272 FILLER_104_463
*1273 FILLER_104_527
*1274 FILLER_104_531
*1275 FILLER_104_534
*1276 FILLER_104_598
*1277 FILLER_104_602
*1278 FILLER_104_605
*1279 FILLER_104_669
*1280 FILLER_104_673
*1281 FILLER_104_676
*1282 FILLER_104_740
*1283 FILLER_104_744
*1284 FILLER_104_747
*1285 FILLER_104_811
*1286 FILLER_104_815
*1287 FILLER_104_818
*1288 FILLER_104_882
*1289 FILLER_104_886
*1290 FILLER_104_889
*1291 FILLER_104_953
*1292 FILLER_104_957
*1293 FILLER_104_960
*1294 FILLER_105_1028
*1295 FILLER_105_1044
*1296 FILLER_105_137
*1297 FILLER_105_141
*1298 FILLER_105_144
*1299 FILLER_105_2
*1300 FILLER_105_208
*1301 FILLER_105_212
*1302 FILLER_105_215
*1303 FILLER_105_279
*1304 FILLER_105_283
*1305 FILLER_105_286
*1306 FILLER_105_350
*1307 FILLER_105_354
*1308 FILLER_105_357
*1309 FILLER_105_421
*1310 FILLER_105_425
*1311 FILLER_105_428
*1312 FILLER_105_492
*1313 FILLER_105_496
*1314 FILLER_105_499
*1315 FILLER_105_563
*1316 FILLER_105_567
*1317 FILLER_105_570
*1318 FILLER_105_634
*1319 FILLER_105_638
*1320 FILLER_105_641
*1321 FILLER_105_66
*1322 FILLER_105_70
*1323 FILLER_105_705
*1324 FILLER_105_709
*1325 FILLER_105_712
*1326 FILLER_105_73
*1327 FILLER_105_776
*1328 FILLER_105_780
*1329 FILLER_105_783
*1330 FILLER_105_847
*1331 FILLER_105_851
*1332 FILLER_105_854
*1333 FILLER_105_918
*1334 FILLER_105_922
*1335 FILLER_105_925
*1336 FILLER_105_989
*1337 FILLER_105_993
*1338 FILLER_105_996
*1339 FILLER_106_101
*1340 FILLER_106_1024
*1341 FILLER_106_1028
*1342 FILLER_106_1031
*1343 FILLER_106_1039
*1344 FILLER_106_1043
*1345 FILLER_106_105
*1346 FILLER_106_108
*1347 FILLER_106_172
*1348 FILLER_106_176
*1349 FILLER_106_179
*1350 FILLER_106_2
*1351 FILLER_106_243
*1352 FILLER_106_247
*1353 FILLER_106_250
*1354 FILLER_106_314
*1355 FILLER_106_318
*1356 FILLER_106_321
*1357 FILLER_106_34
*1358 FILLER_106_37
*1359 FILLER_106_385
*1360 FILLER_106_389
*1361 FILLER_106_392
*1362 FILLER_106_456
*1363 FILLER_106_460
*1364 FILLER_106_463
*1365 FILLER_106_527
*1366 FILLER_106_531
*1367 FILLER_106_534
*1368 FILLER_106_598
*1369 FILLER_106_602
*1370 FILLER_106_605
*1371 FILLER_106_669
*1372 FILLER_106_673
*1373 FILLER_106_676
*1374 FILLER_106_740
*1375 FILLER_106_744
*1376 FILLER_106_747
*1377 FILLER_106_811
*1378 FILLER_106_815
*1379 FILLER_106_818
*1380 FILLER_106_882
*1381 FILLER_106_886
*1382 FILLER_106_889
*1383 FILLER_106_953
*1384 FILLER_106_957
*1385 FILLER_106_960
*1386 FILLER_107_1028
*1387 FILLER_107_1044
*1388 FILLER_107_137
*1389 FILLER_107_141
*1390 FILLER_107_144
*1391 FILLER_107_2
*1392 FILLER_107_208
*1393 FILLER_107_212
*1394 FILLER_107_215
*1395 FILLER_107_279
*1396 FILLER_107_283
*1397 FILLER_107_286
*1398 FILLER_107_350
*1399 FILLER_107_354
*1400 FILLER_107_357
*1401 FILLER_107_421
*1402 FILLER_107_425
*1403 FILLER_107_428
*1404 FILLER_107_492
*1405 FILLER_107_496
*1406 FILLER_107_499
*1407 FILLER_107_563
*1408 FILLER_107_567
*1409 FILLER_107_570
*1410 FILLER_107_634
*1411 FILLER_107_638
*1412 FILLER_107_641
*1413 FILLER_107_66
*1414 FILLER_107_70
*1415 FILLER_107_705
*1416 FILLER_107_709
*1417 FILLER_107_712
*1418 FILLER_107_73
*1419 FILLER_107_776
*1420 FILLER_107_780
*1421 FILLER_107_783
*1422 FILLER_107_847
*1423 FILLER_107_851
*1424 FILLER_107_854
*1425 FILLER_107_918
*1426 FILLER_107_922
*1427 FILLER_107_925
*1428 FILLER_107_989
*1429 FILLER_107_993
*1430 FILLER_107_996
*1431 FILLER_108_101
*1432 FILLER_108_1024
*1433 FILLER_108_1028
*1434 FILLER_108_1031
*1435 FILLER_108_1039
*1436 FILLER_108_1044
*1437 FILLER_108_105
*1438 FILLER_108_108
*1439 FILLER_108_172
*1440 FILLER_108_176
*1441 FILLER_108_179
*1442 FILLER_108_2
*1443 FILLER_108_243
*1444 FILLER_108_247
*1445 FILLER_108_250
*1446 FILLER_108_314
*1447 FILLER_108_318
*1448 FILLER_108_321
*1449 FILLER_108_34
*1450 FILLER_108_37
*1451 FILLER_108_385
*1452 FILLER_108_389
*1453 FILLER_108_392
*1454 FILLER_108_456
*1455 FILLER_108_460
*1456 FILLER_108_463
*1457 FILLER_108_527
*1458 FILLER_108_531
*1459 FILLER_108_534
*1460 FILLER_108_598
*1461 FILLER_108_602
*1462 FILLER_108_605
*1463 FILLER_108_669
*1464 FILLER_108_673
*1465 FILLER_108_676
*1466 FILLER_108_740
*1467 FILLER_108_744
*1468 FILLER_108_747
*1469 FILLER_108_811
*1470 FILLER_108_815
*1471 FILLER_108_818
*1472 FILLER_108_882
*1473 FILLER_108_886
*1474 FILLER_108_889
*1475 FILLER_108_953
*1476 FILLER_108_957
*1477 FILLER_108_960
*1478 FILLER_109_1028
*1479 FILLER_109_1044
*1480 FILLER_109_137
*1481 FILLER_109_141
*1482 FILLER_109_144
*1483 FILLER_109_2
*1484 FILLER_109_208
*1485 FILLER_109_212
*1486 FILLER_109_215
*1487 FILLER_109_279
*1488 FILLER_109_283
*1489 FILLER_109_286
*1490 FILLER_109_350
*1491 FILLER_109_354
*1492 FILLER_109_357
*1493 FILLER_109_421
*1494 FILLER_109_425
*1495 FILLER_109_428
*1496 FILLER_109_492
*1497 FILLER_109_496
*1498 FILLER_109_499
*1499 FILLER_109_563
*1500 FILLER_109_567
*1501 FILLER_109_570
*1502 FILLER_109_634
*1503 FILLER_109_638
*1504 FILLER_109_641
*1505 FILLER_109_66
*1506 FILLER_109_70
*1507 FILLER_109_705
*1508 FILLER_109_709
*1509 FILLER_109_712
*1510 FILLER_109_73
*1511 FILLER_109_776
*1512 FILLER_109_780
*1513 FILLER_109_783
*1514 FILLER_109_847
*1515 FILLER_109_851
*1516 FILLER_109_854
*1517 FILLER_109_918
*1518 FILLER_109_922
*1519 FILLER_109_925
*1520 FILLER_109_989
*1521 FILLER_109_993
*1522 FILLER_109_996
*1523 FILLER_10_101
*1524 FILLER_10_1024
*1525 FILLER_10_1028
*1526 FILLER_10_1031
*1527 FILLER_10_1039
*1528 FILLER_10_1043
*1529 FILLER_10_105
*1530 FILLER_10_108
*1531 FILLER_10_172
*1532 FILLER_10_176
*1533 FILLER_10_179
*1534 FILLER_10_2
*1535 FILLER_10_23
*1536 FILLER_10_243
*1537 FILLER_10_247
*1538 FILLER_10_250
*1539 FILLER_10_31
*1540 FILLER_10_314
*1541 FILLER_10_318
*1542 FILLER_10_321
*1543 FILLER_10_37
*1544 FILLER_10_385
*1545 FILLER_10_389
*1546 FILLER_10_392
*1547 FILLER_10_456
*1548 FILLER_10_460
*1549 FILLER_10_463
*1550 FILLER_10_527
*1551 FILLER_10_531
*1552 FILLER_10_534
*1553 FILLER_10_598
*1554 FILLER_10_602
*1555 FILLER_10_605
*1556 FILLER_10_669
*1557 FILLER_10_673
*1558 FILLER_10_676
*1559 FILLER_10_7
*1560 FILLER_10_740
*1561 FILLER_10_744
*1562 FILLER_10_747
*1563 FILLER_10_811
*1564 FILLER_10_815
*1565 FILLER_10_818
*1566 FILLER_10_882
*1567 FILLER_10_886
*1568 FILLER_10_889
*1569 FILLER_10_953
*1570 FILLER_10_957
*1571 FILLER_10_960
*1572 FILLER_110_101
*1573 FILLER_110_1024
*1574 FILLER_110_1028
*1575 FILLER_110_1031
*1576 FILLER_110_1039
*1577 FILLER_110_1043
*1578 FILLER_110_105
*1579 FILLER_110_108
*1580 FILLER_110_172