*SPEF "ieee 1481-1999"
*DESIGN "tiny_user_project"
*DATE "11:11:11 Fri 11 11, 1111"
*VENDOR "OpenRCX"
*PROGRAM "Parallel Extraction"
*VERSION "1.0"
*DESIGN_FLOW "NAME_SCOPE LOCAL" "PIN_CAP NONE"
*DIVIDER /
*DELIMITER :
*BUS_DELIMITER []
*T_UNIT 1 NS
*C_UNIT 1 PF
*R_UNIT 1 OHM
*L_UNIT 1 HENRY

*NAME_MAP
*1 io_in[0]
*2 io_in[10]
*3 io_in[11]
*4 io_in[12]
*5 io_in[13]
*6 io_in[14]
*7 io_in[15]
*8 io_in[16]
*9 io_in[17]
*10 io_in[18]
*11 io_in[19]
*12 io_in[1]
*13 io_in[20]
*14 io_in[21]
*15 io_in[22]
*16 io_in[23]
*17 io_in[24]
*18 io_in[25]
*19 io_in[26]
*20 io_in[27]
*21 io_in[28]
*22 io_in[29]
*23 io_in[2]
*24 io_in[30]
*25 io_in[31]
*26 io_in[32]
*27 io_in[33]
*28 io_in[34]
*29 io_in[35]
*30 io_in[36]
*31 io_in[37]
*32 io_in[3]
*33 io_in[4]
*34 io_in[5]
*35 io_in[6]
*36 io_in[7]
*37 io_in[8]
*38 io_in[9]
*39 net110
*40 net120
*41 net121
*42 net122
*43 net123
*44 net124
*45 net125
*46 net126
*47 net127
*48 net128
*49 net129
*50 net111
*51 net130
*52 net131
*53 net132
*54 net133
*55 net134
*56 net135
*57 net136
*58 net137
*59 net138
*60 net139
*61 net112
*62 net140
*63 net141
*64 net142
*65 net143
*66 net144
*67 net145
*68 net146
*69 net147
*70 net113
*71 net114
*72 net115
*73 net116
*74 net117
*75 net118
*76 net119
*77 net77
*78 net87
*79 net88
*80 net89
*81 net90
*82 net91
*83 net92
*84 net93
*85 net94
*86 io_out[18]
*87 io_out[19]
*88 net78
*89 net95
*90 io_out[21]
*91 io_out[22]
*92 io_out[23]
*93 net96
*94 net97
*95 net98
*96 net99
*97 net100
*98 net101
*99 net79
*100 net102
*101 net103
*102 net104
*103 net105
*104 net106
*105 net107
*106 net108
*107 net109
*108 net80
*109 net81
*110 net82
*111 net83
*112 net84
*113 net85
*114 net86
*115 la_data_in[0]
*116 la_data_in[10]
*117 la_data_in[11]
*118 la_data_in[12]
*119 la_data_in[13]
*120 la_data_in[14]
*121 la_data_in[15]
*122 la_data_in[16]
*123 la_data_in[17]
*124 la_data_in[18]
*125 la_data_in[19]
*126 la_data_in[1]
*127 la_data_in[20]
*128 la_data_in[21]
*129 la_data_in[22]
*130 la_data_in[23]
*131 la_data_in[24]
*132 la_data_in[25]
*133 la_data_in[26]
*134 la_data_in[27]
*135 la_data_in[28]
*136 la_data_in[29]
*137 la_data_in[2]
*138 la_data_in[30]
*139 la_data_in[31]
*140 la_data_in[32]
*141 la_data_in[33]
*142 la_data_in[34]
*143 la_data_in[35]
*144 la_data_in[36]
*145 la_data_in[37]
*146 la_data_in[38]
*147 la_data_in[39]
*148 la_data_in[3]
*149 la_data_in[40]
*150 la_data_in[41]
*151 la_data_in[42]
*152 la_data_in[43]
*153 la_data_in[44]
*154 la_data_in[45]
*155 la_data_in[46]
*156 la_data_in[47]
*157 la_data_in[48]
*158 la_data_in[49]
*159 la_data_in[4]
*160 la_data_in[50]
*161 la_data_in[51]
*162 la_data_in[52]
*163 la_data_in[53]
*164 la_data_in[54]
*165 la_data_in[55]
*166 la_data_in[56]
*167 la_data_in[57]
*168 la_data_in[58]
*169 la_data_in[59]
*170 la_data_in[5]
*171 la_data_in[60]
*172 la_data_in[61]
*173 la_data_in[62]
*174 la_data_in[63]
*175 la_data_in[6]
*176 la_data_in[7]
*177 la_data_in[8]
*178 la_data_in[9]
*179 net13
*180 net23
*181 net24
*182 net25
*183 net26
*184 net27
*185 net28
*186 net29
*187 net30
*188 net31
*189 net32
*190 net14
*191 net33
*192 net34
*193 net35
*194 net36
*195 net37
*196 net38
*197 net39
*198 net40
*199 net41
*200 net42
*201 net15
*202 net43
*203 net44
*204 net45
*205 net46
*206 net47
*207 net48
*208 net49
*209 net50
*210 net51
*211 net52
*212 net16
*213 net53
*214 net54
*215 net55
*216 net56
*217 net57
*218 net58
*219 net59
*220 net60
*221 net61
*222 net62
*223 net17
*224 net63
*225 net64
*226 net65
*227 net66
*228 net67
*229 net68
*230 net69
*231 net70
*232 net71
*233 net72
*234 net18
*235 net73
*236 net74
*237 net75
*238 net76
*239 net19
*240 net20
*241 net21
*242 net22
*243 la_oenb[0]
*244 la_oenb[10]
*245 la_oenb[11]
*246 la_oenb[12]
*247 la_oenb[13]
*248 la_oenb[14]
*249 la_oenb[15]
*250 la_oenb[16]
*251 la_oenb[17]
*252 la_oenb[18]
*253 la_oenb[19]
*254 la_oenb[1]
*255 la_oenb[20]
*256 la_oenb[21]
*257 la_oenb[22]
*258 la_oenb[23]
*259 la_oenb[24]
*260 la_oenb[25]
*261 la_oenb[26]
*262 la_oenb[27]
*263 la_oenb[28]
*264 la_oenb[29]
*265 la_oenb[2]
*266 la_oenb[30]
*267 la_oenb[31]
*268 la_oenb[32]
*269 la_oenb[33]
*270 la_oenb[34]
*271 la_oenb[35]
*272 la_oenb[36]
*273 la_oenb[37]
*274 la_oenb[38]
*275 la_oenb[39]
*276 la_oenb[3]
*277 la_oenb[40]
*278 la_oenb[41]
*279 la_oenb[42]
*280 la_oenb[43]
*281 la_oenb[44]
*282 la_oenb[45]
*283 la_oenb[46]
*284 la_oenb[47]
*285 la_oenb[48]
*286 la_oenb[49]
*287 la_oenb[4]
*288 la_oenb[50]
*289 la_oenb[51]
*290 la_oenb[52]
*291 la_oenb[53]
*292 la_oenb[54]
*293 la_oenb[55]
*294 la_oenb[56]
*295 la_oenb[57]
*296 la_oenb[58]
*297 la_oenb[59]
*298 la_oenb[5]
*299 la_oenb[60]
*300 la_oenb[61]
*301 la_oenb[62]
*302 la_oenb[63]
*303 la_oenb[6]
*304 la_oenb[7]
*305 la_oenb[8]
*306 la_oenb[9]
*307 user_clock2
*308 net148
*309 net149
*310 net150
*313 wb_clk_i
*314 wb_rst_i
*315 net151
*316 wbs_adr_i[0]
*317 wbs_adr_i[10]
*318 wbs_adr_i[11]
*319 wbs_adr_i[12]
*320 wbs_adr_i[13]
*321 wbs_adr_i[14]
*322 wbs_adr_i[15]
*323 wbs_adr_i[16]
*324 wbs_adr_i[17]
*325 wbs_adr_i[18]
*326 wbs_adr_i[19]
*327 wbs_adr_i[1]
*328 wbs_adr_i[20]
*329 wbs_adr_i[21]
*330 wbs_adr_i[22]
*331 wbs_adr_i[23]
*332 wbs_adr_i[24]
*333 wbs_adr_i[25]
*334 wbs_adr_i[26]
*335 wbs_adr_i[27]
*336 wbs_adr_i[28]
*337 wbs_adr_i[29]
*338 wbs_adr_i[2]
*339 wbs_adr_i[30]
*340 wbs_adr_i[31]
*341 wbs_adr_i[3]
*342 wbs_adr_i[4]
*343 wbs_adr_i[5]
*344 wbs_adr_i[6]
*345 wbs_adr_i[7]
*346 wbs_adr_i[8]
*347 wbs_adr_i[9]
*348 wbs_cyc_i
*349 wbs_dat_i[0]
*350 wbs_dat_i[10]
*351 wbs_dat_i[11]
*352 wbs_dat_i[12]
*353 wbs_dat_i[13]
*354 wbs_dat_i[14]
*355 wbs_dat_i[15]
*356 wbs_dat_i[16]
*357 wbs_dat_i[17]
*358 wbs_dat_i[18]
*359 wbs_dat_i[19]
*360 wbs_dat_i[1]
*361 wbs_dat_i[20]
*362 wbs_dat_i[21]
*363 wbs_dat_i[22]
*364 wbs_dat_i[23]
*365 wbs_dat_i[24]
*366 wbs_dat_i[25]
*367 wbs_dat_i[26]
*368 wbs_dat_i[27]
*369 wbs_dat_i[28]
*370 wbs_dat_i[29]
*371 wbs_dat_i[2]
*372 wbs_dat_i[30]
*373 wbs_dat_i[31]
*374 wbs_dat_i[3]
*375 wbs_dat_i[4]
*376 wbs_dat_i[5]
*377 wbs_dat_i[6]
*378 wbs_dat_i[7]
*379 wbs_dat_i[8]
*380 wbs_dat_i[9]
*381 net152
*382 net162
*383 net163
*384 net164
*385 net165
*386 net166
*387 net167
*388 net168
*389 net169
*390 net170
*391 net171
*392 net153
*393 net172
*394 net173
*395 net174
*396 net175
*397 net176
*398 net177
*399 net178
*400 net179
*401 net180
*402 net181
*403 net154
*404 net182
*405 net183
*406 net155
*407 net156
*408 net157
*409 net158
*410 net159
*411 net160
*412 net161
*413 wbs_sel_i[0]
*414 wbs_sel_i[1]
*415 wbs_sel_i[2]
*416 wbs_sel_i[3]
*417 wbs_stb_i
*418 wbs_we_i
*419 _000_
*420 _001_
*421 net1
*422 net10
*423 net11
*424 net12
*425 net2
*426 net3
*427 net4
*428 net5
*429 net6
*430 net7
*431 net8
*432 net9
*433 ANTENNA__002__I
*434 ANTENNA__003__I
*435 ANTENNA__004__A2
*436 ANTENNA__005__CLK
*437 ANTENNA__177__I
*438 ANTENNA__178__I
*439 ANTENNA__179__I
*440 ANTENNA_input1_I
*441 ANTENNA_input2_I
*442 ANTENNA_input3_I
*443 ANTENNA_input4_I
*444 ANTENNA_input5_I
*445 ANTENNA_input6_I
*446 ANTENNA_input7_I
*447 ANTENNA_output10_I
*448 ANTENNA_output11_I
*449 ANTENNA_output12_I
*450 ANTENNA_output8_I
*451 ANTENNA_output9_I
*452 FILLER_0_101
*453 FILLER_0_1011
*454 FILLER_0_1017
*455 FILLER_0_1025
*456 FILLER_0_1029
*457 FILLER_0_1044
*458 FILLER_0_107
*459 FILLER_0_11
*460 FILLER_0_115
*461 FILLER_0_119
*462 FILLER_0_125
*463 FILLER_0_133
*464 FILLER_0_137
*465 FILLER_0_139
*466 FILLER_0_142
*467 FILLER_0_174
*468 FILLER_0_177
*469 FILLER_0_2
*470 FILLER_0_209
*471 FILLER_0_212
*472 FILLER_0_228
*473 FILLER_0_233
*474 FILLER_0_237
*475 FILLER_0_239
*476 FILLER_0_244
*477 FILLER_0_247
*478 FILLER_0_251
*479 FILLER_0_257
*480 FILLER_0_263
*481 FILLER_0_27
*482 FILLER_0_279
*483 FILLER_0_282
*484 FILLER_0_287
*485 FILLER_0_299
*486 FILLER_0_317
*487 FILLER_0_323
*488 FILLER_0_329
*489 FILLER_0_345
*490 FILLER_0_349
*491 FILLER_0_352
*492 FILLER_0_368
*493 FILLER_0_37
*494 FILLER_0_372
*495 FILLER_0_377
*496 FILLER_0_387
*497 FILLER_0_395
*498 FILLER_0_411
*499 FILLER_0_419
*500 FILLER_0_422
*501 FILLER_0_426
*502 FILLER_0_431
*503 FILLER_0_447
*504 FILLER_0_449
*505 FILLER_0_454
*506 FILLER_0_457
*507 FILLER_0_462
*508 FILLER_0_466
*509 FILLER_0_468
*510 FILLER_0_473
*511 FILLER_0_485
*512 FILLER_0_489
*513 FILLER_0_492
*514 FILLER_0_508
*515 FILLER_0_516
*516 FILLER_0_521
*517 FILLER_0_527
*518 FILLER_0_53
*519 FILLER_0_543
*520 FILLER_0_551
*521 FILLER_0_559
*522 FILLER_0_562
*523 FILLER_0_59
*524 FILLER_0_594
*525 FILLER_0_597
*526 FILLER_0_6
*527 FILLER_0_602
*528 FILLER_0_608
*529 FILLER_0_612
*530 FILLER_0_617
*531 FILLER_0_625
*532 FILLER_0_629
*533 FILLER_0_632
*534 FILLER_0_65
*535 FILLER_0_664
*536 FILLER_0_667
*537 FILLER_0_672
*538 FILLER_0_676
*539 FILLER_0_678
*540 FILLER_0_683
*541 FILLER_0_69
*542 FILLER_0_695
*543 FILLER_0_699
*544 FILLER_0_702
*545 FILLER_0_718
*546 FILLER_0_72
*547 FILLER_0_726
*548 FILLER_0_731
*549 FILLER_0_737
*550 FILLER_0_749
*551 FILLER_0_761
*552 FILLER_0_769
*553 FILLER_0_77
*554 FILLER_0_772
*555 FILLER_0_777
*556 FILLER_0_793
*557 FILLER_0_801
*558 FILLER_0_807
*559 FILLER_0_827
*560 FILLER_0_835
*561 FILLER_0_839
*562 FILLER_0_842
*563 FILLER_0_874
*564 FILLER_0_877
*565 FILLER_0_885
*566 FILLER_0_893
*567 FILLER_0_909
*568 FILLER_0_912
*569 FILLER_0_93
*570 FILLER_0_944
*571 FILLER_0_947
*572 FILLER_0_952
*573 FILLER_0_960
*574 FILLER_0_964
*575 FILLER_0_966
*576 FILLER_0_971
*577 FILLER_0_979
*578 FILLER_0_982
*579 FILLER_0_987
*580 FILLER_0_995
*581 FILLER_100_101
*582 FILLER_100_1024
*583 FILLER_100_1028
*584 FILLER_100_1031
*585 FILLER_100_1039
*586 FILLER_100_1043
*587 FILLER_100_105
*588 FILLER_100_108
*589 FILLER_100_172
*590 FILLER_100_176
*591 FILLER_100_179
*592 FILLER_100_2
*593 FILLER_100_243
*594 FILLER_100_247
*595 FILLER_100_250
*596 FILLER_100_314
*597 FILLER_100_318
*598 FILLER_100_321
*599 FILLER_100_34
*600 FILLER_100_37
*601 FILLER_100_385
*602 FILLER_100_389
*603 FILLER_100_392
*604 FILLER_100_456
*605 FILLER_100_460
*606 FILLER_100_463
*607 FILLER_100_527
*608 FILLER_100_531
*609 FILLER_100_534
*610 FILLER_100_598
*611 FILLER_100_602
*612 FILLER_100_605
*613 FILLER_100_669
*614 FILLER_100_673
*615 FILLER_100_676
*616 FILLER_100_740
*617 FILLER_100_744
*618 FILLER_100_747
*619 FILLER_100_811
*620 FILLER_100_815
*621 FILLER_100_818
*622 FILLER_100_882
*623 FILLER_100_886
*624 FILLER_100_889
*625 FILLER_100_953
*626 FILLER_100_957
*627 FILLER_100_960
*628 FILLER_101_1028
*629 FILLER_101_1036
*630 FILLER_101_1044
*631 FILLER_101_137
*632 FILLER_101_141
*633 FILLER_101_144
*634 FILLER_101_2
*635 FILLER_101_208
*636 FILLER_101_212
*637 FILLER_101_215
*638 FILLER_101_279
*639 FILLER_101_283
*640 FILLER_101_286
*641 FILLER_101_350
*642 FILLER_101_354
*643 FILLER_101_357
*644 FILLER_101_421
*645 FILLER_101_425
*646 FILLER_101_428
*647 FILLER_101_492
*648 FILLER_101_496
*649 FILLER_101_499
*650 FILLER_101_563
*651 FILLER_101_567
*652 FILLER_101_570
*653 FILLER_101_634
*654 FILLER_101_638
*655 FILLER_101_641
*656 FILLER_101_66
*657 FILLER_101_70
*658 FILLER_101_705
*659 FILLER_101_709
*660 FILLER_101_712
*661 FILLER_101_73
*662 FILLER_101_776
*663 FILLER_101_780
*664 FILLER_101_783
*665 FILLER_101_847
*666 FILLER_101_851
*667 FILLER_101_854
*668 FILLER_101_918
*669 FILLER_101_922
*670 FILLER_101_925
*671 FILLER_101_989
*672 FILLER_101_993
*673 FILLER_101_996
*674 FILLER_102_101
*675 FILLER_102_1024
*676 FILLER_102_1028
*677 FILLER_102_1031
*678 FILLER_102_1039
*679 FILLER_102_1043
*680 FILLER_102_105
*681 FILLER_102_108
*682 FILLER_102_13
*683 FILLER_102_172
*684 FILLER_102_176
*685 FILLER_102_179
*686 FILLER_102_2
*687 FILLER_102_243
*688 FILLER_102_247
*689 FILLER_102_250
*690 FILLER_102_29
*691 FILLER_102_314
*692 FILLER_102_318
*693 FILLER_102_321
*694 FILLER_102_33
*695 FILLER_102_37
*696 FILLER_102_385
*697 FILLER_102_389
*698 FILLER_102_392
*699 FILLER_102_456
*700 FILLER_102_460
*701 FILLER_102_463
*702 FILLER_102_527
*703 FILLER_102_531
*704 FILLER_102_534
*705 FILLER_102_598
*706 FILLER_102_602
*707 FILLER_102_605
*708 FILLER_102_669
*709 FILLER_102_673
*710 FILLER_102_676
*711 FILLER_102_7
*712 FILLER_102_740
*713 FILLER_102_744
*714 FILLER_102_747
*715 FILLER_102_811
*716 FILLER_102_815
*717 FILLER_102_818
*718 FILLER_102_882
*719 FILLER_102_886
*720 FILLER_102_889
*721 FILLER_102_953
*722 FILLER_102_957
*723 FILLER_102_960
*724 FILLER_103_1028
*725 FILLER_103_1036
*726 FILLER_103_1044
*727 FILLER_103_137
*728 FILLER_103_141
*729 FILLER_103_144
*730 FILLER_103_2
*731 FILLER_103_208
*732 FILLER_103_212
*733 FILLER_103_215
*734 FILLER_103_279
*735 FILLER_103_283
*736 FILLER_103_286
*737 FILLER_103_350
*738 FILLER_103_354
*739 FILLER_103_357
*740 FILLER_103_421
*741 FILLER_103_425
*742 FILLER_103_428
*743 FILLER_103_492
*744 FILLER_103_496
*745 FILLER_103_499
*746 FILLER_103_563
*747 FILLER_103_567
*748 FILLER_103_570
*749 FILLER_103_634
*750 FILLER_103_638
*751 FILLER_103_641
*752 FILLER_103_66
*753 FILLER_103_70
*754 FILLER_103_705
*755 FILLER_103_709
*756 FILLER_103_712
*757 FILLER_103_73
*758 FILLER_103_776
*759 FILLER_103_780
*760 FILLER_103_783
*761 FILLER_103_847
*762 FILLER_103_851
*763 FILLER_103_854
*764 FILLER_103_918
*765 FILLER_103_922
*766 FILLER_103_925
*767 FILLER_103_989
*768 FILLER_103_993
*769 FILLER_103_996
*770 FILLER_104_101
*771 FILLER_104_1024
*772 FILLER_104_1028
*773 FILLER_104_1031
*774 FILLER_104_1039
*775 FILLER_104_1043
*776 FILLER_104_105
*777 FILLER_104_108
*778 FILLER_104_17
*779 FILLER_104_172
*780 FILLER_104_176
*781 FILLER_104_179
*782 FILLER_104_2
*783 FILLER_104_21
*784 FILLER_104_243
*785 FILLER_104_247
*786 FILLER_104_250
*787 FILLER_104_29
*788 FILLER_104_314
*789 FILLER_104_318
*790 FILLER_104_321
*791 FILLER_104_33
*792 FILLER_104_37
*793 FILLER_104_385
*794 FILLER_104_389
*795 FILLER_104_392
*796 FILLER_104_456
*797 FILLER_104_460
*798 FILLER_104_463
*799 FILLER_104_527
*800 FILLER_104_531
*801 FILLER_104_534
*802 FILLER_104_598
*803 FILLER_104_602
*804 FILLER_104_605
*805 FILLER_104_669
*806 FILLER_104_673
*807 FILLER_104_676
*808 FILLER_104_740
*809 FILLER_104_744
*810 FILLER_104_747
*811 FILLER_104_811
*812 FILLER_104_815
*813 FILLER_104_818
*814 FILLER_104_882
*815 FILLER_104_886
*816 FILLER_104_889
*817 FILLER_104_953
*818 FILLER_104_957
*819 FILLER_104_960
*820 FILLER_105_1028
*821 FILLER_105_1044
*822 FILLER_105_137
*823 FILLER_105_141
*824 FILLER_105_144
*825 FILLER_105_2
*826 FILLER_105_208
*827 FILLER_105_212
*828 FILLER_105_215
*829 FILLER_105_279
*830 FILLER_105_283
*831 FILLER_105_286
*832 FILLER_105_350
*833 FILLER_105_354
*834 FILLER_105_357
*835 FILLER_105_421
*836 FILLER_105_425
*837 FILLER_105_428
*838 FILLER_105_492
*839 FILLER_105_496
*840 FILLER_105_499
*841 FILLER_105_563
*842 FILLER_105_567
*843 FILLER_105_570
*844 FILLER_105_634
*845 FILLER_105_638
*846 FILLER_105_641
*847 FILLER_105_66
*848 FILLER_105_70
*849 FILLER_105_705
*850 FILLER_105_709
*851 FILLER_105_712
*852 FILLER_105_73
*853 FILLER_105_776
*854 FILLER_105_780
*855 FILLER_105_783
*856 FILLER_105_847
*857 FILLER_105_851
*858 FILLER_105_854
*859 FILLER_105_918
*860 FILLER_105_922
*861 FILLER_105_925
*862 FILLER_105_989
*863 FILLER_105_993
*864 FILLER_105_996
*865 FILLER_106_101
*866 FILLER_106_1024
*867 FILLER_106_1028
*868 FILLER_106_1031
*869 FILLER_106_1039
*870 FILLER_106_1043
*871 FILLER_106_105
*872 FILLER_106_108
*873 FILLER_106_172
*874 FILLER_106_176
*875 FILLER_106_179
*876 FILLER_106_2
*877 FILLER_106_243
*878 FILLER_106_247
*879 FILLER_106_250
*880 FILLER_106_314
*881 FILLER_106_318
*882 FILLER_106_321
*883 FILLER_106_34
*884 FILLER_106_37
*885 FILLER_106_385
*886 FILLER_106_389
*887 FILLER_106_392
*888 FILLER_106_456
*889 FILLER_106_460
*890 FILLER_106_463
*891 FILLER_106_527
*892 FILLER_106_531
*893 FILLER_106_534
*894 FILLER_106_598
*895 FILLER_106_602
*896 FILLER_106_605
*897 FILLER_106_669
*898 FILLER_106_673
*899 FILLER_106_676
*900 FILLER_106_740
*901 FILLER_106_744
*902 FILLER_106_747
*903 FILLER_106_811
*904 FILLER_106_815
*905 FILLER_106_818
*906 FILLER_106_882
*907 FILLER_106_886
*908 FILLER_106_889
*909 FILLER_106_953
*910 FILLER_106_957
*911 FILLER_106_960
*912 FILLER_107_1028
*913 FILLER_107_1044
*914 FILLER_107_137
*915 FILLER_107_141
*916 FILLER_107_144
*917 FILLER_107_2
*918 FILLER_107_208
*919 FILLER_107_212
*920 FILLER_107_215
*921 FILLER_107_279
*922 FILLER_107_283
*923 FILLER_107_286
*924 FILLER_107_350
*925 FILLER_107_354
*926 FILLER_107_357
*927 FILLER_107_421
*928 FILLER_107_425
*929 FILLER_107_428
*930 FILLER_107_492
*931 FILLER_107_496
*932 FILLER_107_499
*933 FILLER_107_563
*934 FILLER_107_567
*935 FILLER_107_570
*936 FILLER_107_634
*937 FILLER_107_638
*938 FILLER_107_641
*939 FILLER_107_66
*940 FILLER_107_70
*941 FILLER_107_705
*942 FILLER_107_709
*943 FILLER_107_712
*944 FILLER_107_73
*945 FILLER_107_776
*946 FILLER_107_780
*947 FILLER_107_783
*948 FILLER_107_847
*949 FILLER_107_851
*950 FILLER_107_854
*951 FILLER_107_918
*952 FILLER_107_922
*953 FILLER_107_925
*954 FILLER_107_989
*955 FILLER_107_993
*956 FILLER_107_996
*957 FILLER_108_101
*958 FILLER_108_1024
*959 FILLER_108_1028
*960 FILLER_108_1031
*961 FILLER_108_1039
*962 FILLER_108_1044
*963 FILLER_108_105
*964 FILLER_108_108
*965 FILLER_108_172
*966 FILLER_108_176
*967 FILLER_108_179
*968 FILLER_108_2
*969 FILLER_108_243
*970 FILLER_108_247
*971 FILLER_108_250
*972 FILLER_108_314
*973 FILLER_108_318
*974 FILLER_108_321
*975 FILLER_108_34
*976 FILLER_108_37
*977 FILLER_108_385
*978 FILLER_108_389
*979 FILLER_108_392
*980 FILLER_108_456
*981 FILLER_108_460
*982 FILLER_108_463
*983 FILLER_108_527
*984 FILLER_108_531
*985 FILLER_108_534
*986 FILLER_108_598
*987 FILLER_108_602
*988 FILLER_108_605
*989 FILLER_108_669
*990 FILLER_108_673
*991 FILLER_108_676
*992 FILLER_108_740
*993 FILLER_108_744
*994 FILLER_108_747
*995 FILLER_108_811
*996 FILLER_108_815
*997 FILLER_108_818
*998 FILLER_108_882
*999 FILLER_108_886
*1000 FILLER_108_889
*1001 FILLER_108_953
*1002 FILLER_108_957
*1003 FILLER_108_960
*1004 FILLER_109_1028
*1005 FILLER_109_1044
*1006 FILLER_109_137
*1007 FILLER_109_141
*1008 FILLER_109_144
*1009 FILLER_109_2
*1010 FILLER_109_208
*1011 FILLER_109_212
*1012 FILLER_109_215
*1013 FILLER_109_279
*1014 FILLER_109_283
*1015 FILLER_109_286
*1016 FILLER_109_350
*1017 FILLER_109_354
*1018 FILLER_109_357
*1019 FILLER_109_421
*1020 FILLER_109_425
*1021 FILLER_109_428
*1022 FILLER_109_492
*1023 FILLER_109_496
*1024 FILLER_109_499
*1025 FILLER_109_563
*1026 FILLER_109_567
*1027 FILLER_109_570
*1028 FILLER_109_634
*1029 FILLER_109_638
*1030 FILLER_109_641
*1031 FILLER_109_66
*1032 FILLER_109_70
*1033 FILLER_109_705
*1034 FILLER_109_709
*1035 FILLER_109_712
*1036 FILLER_109_73
*1037 FILLER_109_776
*1038 FILLER_109_780
*1039 FILLER_109_783
*1040 FILLER_109_847
*1041 FILLER_109_851
*1042 FILLER_109_854
*1043 FILLER_109_918
*1044 FILLER_109_922
*1045 FILLER_109_925
*1046 FILLER_109_989
*1047 FILLER_109_993
*1048 FILLER_109_996
*1049 FILLER_10_101
*1050 FILLER_10_1024
*1051 FILLER_10_1028
*1052 FILLER_10_1031
*1053 FILLER_10_1039
*1054 FILLER_10_1043
*1055 FILLER_10_105
*1056 FILLER_10_108
*1057 FILLER_10_172
*1058 FILLER_10_176
*1059 FILLER_10_179
*1060 FILLER_10_2
*1061 FILLER_10_23
*1062 FILLER_10_243
*1063 FILLER_10_247
*1064 FILLER_10_250
*1065 FILLER_10_31
*1066 FILLER_10_314
*1067 FILLER_10_318
*1068 FILLER_10_321
*1069 FILLER_10_37
*1070 FILLER_10_385
*1071 FILLER_10_389
*1072 FILLER_10_392
*1073 FILLER_10_456
*1074 FILLER_10_460
*1075 FILLER_10_463
*1076 FILLER_10_527
*1077 FILLER_10_531
*1078 FILLER_10_534
*1079 FILLER_10_598
*1080 FILLER_10_602
*1081 FILLER_10_605
*1082 FILLER_10_669
*1083 FILLER_10_673
*1084 FILLER_10_676
*1085 FILLER_10_7
*1086 FILLER_10_740
*1087 FILLER_10_744
*1088 FILLER_10_747
*1089 FILLER_10_811
*1090 FILLER_10_815
*1091 FILLER_10_818
*1092 FILLER_10_882
*1093 FILLER_10_886
*1094 FILLER_10_889
*1095 FILLER_10_953
*1096 FILLER_10_957
*1097 FILLER_10_960
*1098 FILLER_110_101
*1099 FILLER_110_1024
*1100 FILLER_110_1028
*1101 FILLER_110_1031
*1102 FILLER_110_1039
*1103 FILLER_110_1043
*1104 FILLER_110_105
*1105 FILLER_110_108
*1106 FILLER_110_172
*1107 FILLER_110_176
*1108 FILLER_110_179
*1109 FILLER_110_2
*1110 FILLER_110_21
*1111 FILLER_110_243
*1112 FILLER_110_247
*1113 FILLER_110_250
*1114 FILLER_110_29
*1115 FILLER_110_314
*1116 FILLER_110_318
*1117 FILLER_110_321
*1118 FILLER_110_33
*1119 FILLER_110_37
*1120 FILLER_110_385
*1121 FILLER_110_389
*1122 FILLER_110_392
*1123 FILLER_110_456
*1124 FILLER_110_460
*1125 FILLER_110_463
*1126 FILLER_110_5
*1127 FILLER_110_527
*1128 FILLER_110_531
*1129 FILLER_110_534
*1130 FILLER_110_598
*1131 FILLER_110_602
*1132 FILLER_110_605
*1133 FILLER_110_669
*1134 FILLER_110_673
*1135 FILLER_110_676
*1136 FILLER_110_740
*1137 FILLER_110_744
*1138 FILLER_110_747
*1139 FILLER_110_811
*1140 FILLER_110_815
*1141 FILLER_110_818
*1142 FILLER_110_882
*1143 FILLER_110_886
*1144 FILLER_110_889
*1145 FILLER_110_953
*1146 FILLER_110_957
*1147 FILLER_110_960
*1148 FILLER_111_1028
*1149 FILLER_111_1044
*1150 FILLER_111_137
*1151 FILLER_111_141
*1152 FILLER_111_144
*1153 FILLER_111_2
*1154 FILLER_111_208
*1155 FILLER_111_212
*1156 FILLER_111_215
*1157 FILLER_111_279
*1158 FILLER_111_283
*1159 FILLER_111_286
*1160 FILLER_111_350
*1161 FILLER_111_354
*1162 FILLER_111_357
*1163 FILLER_111_41
*1164 FILLER_111_421
*1165 FILLER_111_425
*1166 FILLER_111_428
*1167 FILLER_111_492
*1168 FILLER_111_496
*1169 FILLER_111_499
*1170 FILLER_111_563
*1171 FILLER_111_567
*1172 FILLER_111_57
*1173 FILLER_111_570
*1174 FILLER_111_634
*1175 FILLER_111_638
*1176 FILLER_111_641
*1177 FILLER_111_65
*1178 FILLER_111_69
*1179 FILLER_111_705
*1180 FILLER_111_709
*1181 FILLER_111_712
*1182 FILLER_111_73
*1183 FILLER_111_776
*1184 FILLER_111_780
*1185 FILLER_111_783
*1186 FILLER_111_847
*1187 FILLER_111_851
*1188 FILLER_111_854
*1189 FILLER_111_9
*1190 FILLER_111_918
*1191 FILLER_111_922
*1192 FILLER_111_925
*1193 FILLER_111_989
*1194 FILLER_111_993
*1195 FILLER_111_996
*1196 FILLER_112_101
*1197 FILLER_112_1024
*1198 FILLER_112_1028
*1199 FILLER_112_1031
*1200 FILLER_112_1039
*1201 FILLER_112_1044
*1202 FILLER_112_105
*1203 FILLER_112_108
*1204 FILLER_112_172
*1205 FILLER_112_176
*1206 FILLER_112_179
*1207 FILLER_112_2
*1208 FILLER_112_23
*1209 FILLER_112_243
*1210 FILLER_112_247
*1211 FILLER_112_250
*1212 FILLER_112_31
*1213 FILLER_112_314
*1214 FILLER_112_318
*1215 FILLER_112_321
*1216 FILLER_112_37
*1217 FILLER_112_385
*1218 FILLER_112_389
*1219 FILLER_112_392
*1220 FILLER_112_456
*1221 FILLER_112_460
*1222 FILLER_112_463
*1223 FILLER_112_527
*1224 FILLER_112_531
*1225 FILLER_112_534
*1226 FILLER_112_598
*1227 FILLER_112_602
*1228 FILLER_112_605
*1229 FILLER_112_669
*1230 FILLER_112_673
*1231 FILLER_112_676
*1232 FILLER_112_7
*1233 FILLER_112_740
*1234 FILLER_112_744
*1235 FILLER_112_747
*1236 FILLER_112_811
*1237 FILLER_112_815
*1238 FILLER_112_818
*1239 FILLER_112_882
*1240 FILLER_112_886
*1241 FILLER_112_889
*1242 FILLER_112_953
*1243 FILLER_112_957
*1244 FILLER_112_960
*1245 FILLER_113_1028
*1246 FILLER_113_1044
*1247 FILLER_113_137
*1248 FILLER_113_141
*1249 FILLER_113_144
*1250 FILLER_113_2
*1251 FILLER_113_208
*1252 FILLER_113_212
*1253 FILLER_113_215
*1254 FILLER_113_279
*1255 FILLER_113_283
*1256 FILLER_113_286
*1257 FILLER_113_350
*1258 FILLER_113_354
*1259 FILLER_113_357
*1260 FILLER_113_421
*1261 FILLER_113_425
*1262 FILLER_113_428
*1263 FILLER_113_492
*1264 FILLER_113_496
*1265 FILLER_113_499
*1266 FILLER_113_563
*1267 FILLER_113_567
*1268 FILLER_113_570
*1269 FILLER_113_634
*1270 FILLER_113_638
*1271 FILLER_113_641
*1272 FILLER_113_66
*1273 FILLER_113_70
*1274 FILLER_113_705
*1275 FILLER_113_709
*1276 FILLER_113_712
*1277 FILLER_113_73
*1278 FILLER_113_776
*1279 FILLER_113_780
*1280 FILLER_113_783
*1281 FILLER_113_847
*1282 FILLER_113_851
*1283 FILLER_113_854
*1284 FILLER_113_918
*1285 FILLER_113_922
*1286 FILLER_113_925
*1287 FILLER_113_989
*1288 FILLER_113_993
*1289 FILLER_113_996
*1290 FILLER_114_101
*1291 FILLER_114_1024
*1292 FILLER_114_1028
*1293 FILLER_114_1031
*1294 FILLER_114_1039
*1295 FILLER_114_1043
*1296 FILLER_114_105
*1297 FILLER_114_108
*1298 FILLER_114_172
*1299 FILLER_114_176
*1300 FILLER_114_179
*1301 FILLER_114_2
*1302 FILLER_114_23
*1303 FILLER_114_243
*1304 FILLER_114_247
*1305 FILLER_114_250
*1306 FILLER_114_31
*1307 FILLER_114_314
*1308 FILLER_114_318
*1309 FILLER_114_321
*1310 FILLER_114_37
*1311 FILLER_114_385
*1312 FILLER_114_389
*1313 FILLER_114_392
*1314 FILLER_114_456
*1315 FILLER_114_460
*1316 FILLER_114_463
*1317 FILLER_114_527
*1318 FILLER_114_531
*1319 FILLER_114_534
*1320 FILLER_114_598
*1321 FILLER_114_602
*1322 FILLER_114_605
*1323 FILLER_114_669
*1324 FILLER_114_673
*1325 FILLER_114_676
*1326 FILLER_114_7
*1327 FILLER_114_740
*1328 FILLER_114_744
*1329 FILLER_114_747
*1330 FILLER_114_811
*1331 FILLER_114_815
*1332 FILLER_114_818
*1333 FILLER_114_882
*1334 FILLER_114_886
*1335 FILLER_114_889
*1336 FILLER_114_953
*1337 FILLER_114_957
*1338 FILLER_114_960
*1339 FILLER_115_1028
*1340 FILLER_115_1044
*1341 FILLER_115_137
*1342 FILLER_115_141
*1343 FILLER_115_144
*1344 FILLER_115_2
*1345 FILLER_115_208
*1346 FILLER_115_212
*1347 FILLER_115_215
*1348 FILLER_115_279
*1349 FILLER_115_283
*1350 FILLER_115_286
*1351 FILLER_115_350
*1352 FILLER_115_354
*1353 FILLER_115_357
*1354 FILLER_115_421
*1355 FILLER_115_425
*1356 FILLER_115_428
*1357 FILLER_115_492
*1358 FILLER_115_496
*1359 FILLER_115_499
*1360 FILLER_115_563
*1361 FILLER_115_567
*1362 FILLER_115_570
*1363 FILLER_115_634
*1364 FILLER_115_638
*1365 FILLER_115_641
*1366 FILLER_115_66
*1367 FILLER_115_70
*1368 FILLER_115_705
*1369 FILLER_115_709
*1370 FILLER_115_712
*1371 FILLER_115_73
*1372 FILLER_115_776
*1373 FILLER_115_780
*1374 FILLER_115_783
*1375 FILLER_115_847
*1376 FILLER_115_851
*1377 FILLER_115_854
*1378 FILLER_115_918
*1379 FILLER_115_922
*1380 FILLER_115_925
*1381 FILLER_115_989
*1382 FILLER_115_993
*1383 FILLER_115_996
*1384 FILLER_116_101
*1385 FILLER_116_1024
*1386 FILLER_116_1028
*1387 FILLER_116_1031
*1388 FILLER_116_1039
*1389 FILLER_116_1043
*1390 FILLER_116_105
*1391 FILLER_116_108
*1392 FILLER_116_172
*1393 FILLER_116_176
*1394 FILLER_116_179
*1395 FILLER_116_2
*1396 FILLER_116_243
*1397 FILLER_116_247
*1398 FILLER_116_250
*1399 FILLER_116_314
*1400 FILLER_116_318
*1401 FILLER_116_321
*1402 FILLER_116_34
*1403 FILLER_116_37
*1404 FILLER_116_385
*1405 FILLER_116_389
*1406 FILLER_116_392
*1407 FILLER_116_456
*1408 FILLER_116_460
*1409 FILLER_116_463
*1410 FILLER_116_527
*1411 FILLER_116_531
*1412 FILLER_116_534
*1413 FILLER_116_598
*1414 FILLER_116_602
*1415 FILLER_116_605
*1416 FILLER_116_669
*1417 FILLER_116_673
*1418 FILLER_116_676
*1419 FILLER_116_740
*1420 FILLER_116_744
*1421 FILLER_116_747
*1422 FILLER_116_811
*1423 FILLER_116_815
*1424 FILLER_116_818
*1425 FILLER_116_882
*1426 FILLER_116_886
*1427 FILLER_116_889
*1428 FILLER_116_953
*1429 FILLER_116_957
*1430 FILLER_116_960
*1431 FILLER_117_1028
*1432 FILLER_117_1044
*1433 FILLER_117_137
*1434 FILLER_117_141
*1435 FILLER_117_144
*1436 FILLER_117_2
*1437 FILLER_117_208
*1438 FILLER_117_212
*1439 FILLER_117_215
*1440 FILLER_117_279
*1441 FILLER_117_283
*1442 FILLER_117_286
*1443 FILLER_117_350
*1444 FILLER_117_354
*1445 FILLER_117_357
*1446 FILLER_117_421
*1447 FILLER_117_425
*1448 FILLER_117_428
*1449 FILLER_117_492
*1450 FILLER_117_496
*1451 FILLER_117_499
*1452 FILLER_117_563
*1453 FILLER_117_567
*1454 FILLER_117_570
*1455 FILLER_117_634
*1456 FILLER_117_638
*1457 FILLER_117_641
*1458 FILLER_117_7
*1459 FILLER_117_705
*1460 FILLER_117_709
*1461 FILLER_117_712
*1462 FILLER_117_73
*1463 FILLER_117_776
*1464 FILLER_117_780
*1465 FILLER_117_783
*1466 FILLER_117_847
*1467 FILLER_117_851
*1468 FILLER_117_854
*1469 FILLER_117_918
*1470 FILLER_117_922
*1471 FILLER_117_925
*1472 FILLER_117_989
*1473 FILLER_117_993
*1474 FILLER_117_996
*1475 FILLER_118_101
*1476 FILLER_118_1024
*1477 FILLER_118_1028
*1478 FILLER_118_1031
*1479 FILLER_118_1039
*1480 FILLER_118_1044
*1481 FILLER_118_105
*1482 FILLER_118_108
*1483 FILLER_118_172
*1484 FILLER_118_176
*1485 FILLER_118_179
*1486 FILLER_118_2
*1487 FILLER_118_243
*1488 FILLER_118_247
*1489 FILLER_118_250
*1490 FILLER_118_314
*1491 FILLER_118_318
*1492 FILLER_118_321
*1493 FILLER_118_34
*1494 FILLER_118_37
*1495 FILLER_118_385
*1496 FILLER_118_389
*1497 FILLER_118_392
*1498 FILLER_118_456
*1499 FILLER_118_460
*1500 FILLER_118_463
*1501 FILLER_118_527
*1502 FILLER_118_531
*1503 FILLER_118_534
*1504 FILLER_118_598
*1505 FILLER_118_602
*1506 FILLER_118_605
*1507 FILLER_118_669
*1508 FILLER_118_673
*1509 FILLER_118_676
*1510 FILLER_118_740
*1511 FILLER_118_744
*1512 FILLER_118_747
*1513 FILLER_118_811
*1514 FILLER_118_815
*1515 FILLER_118_818
*1516 FILLER_118_882
*1517 FILLER_118_886
*1518 FILLER_118_889
*1519 FILLER_118_953
*1520 FILLER_118_957
*1521 FILLER_118_960
*1522 FILLER_119_1028
*1523 FILLER_119_1044
*1524 FILLER_119_137
*1525 FILLER_119_141
*1526 FILLER_119_144
*1527 FILLER_119_2
*1528 FILLER_119_208
*1529 FILLER_119_212
*1530 FILLER_119_215
*1531 FILLER_119_279
*1532 FILLER_119_283
*1533 FILLER_119_286
*1534 FILLER_119_350
*1535 FILLER_119_354
*1536 FILLER_119_357
*1537 FILLER_119_421
*1538 FILLER_119_425
*1539 FILLER_119_428
*1540 FILLER_119_492
*1541 FILLER_119_496
*1542 FILLER_119_499
*1543 FILLER_119_563
*1544 FILLER_119_567
*1545 FILLER_119_570
*1546 FILLER_119_634
*1547 FILLER_119_638
*1548 FILLER_119_641
*1549 FILLER_119_7
*1550 FILLER_119_705
*1551 FILLER_119_709
*1552 FILLER_119_712
*1553 FILLER_119_73
*1554 FILLER_119_776
*1555 FILLER_119_780
*1556 FILLER_119_783
*1557 FILLER_119_847
*1558 FILLER_119_851
*1559 FILLER_119_854
*1560 FILLER_119_918
*1561 FILLER_119_922
*1562 FILLER_119_925
*1563 FILLER_119_989
*1564 FILLER_119_993
*1565 FILLER_119_996
*1566 FILLER_11_1028
*1567 FILLER_11_1036
*1568 FILLER_11_1044
*1569 FILLER_11_137
*1570 FILLER_11_141
*1571 FILLER_11_144
*1572 FILLER_11_2
*1573 FILLER_11_208
*1574 FILLER_11_212
*1575 FILLER_11_215
*1576 FILLER_11_279
*1577 FILLER_11_283
*1578 FILLER_11_286
*1579 FILLER_11_350
*1580 FILLER_11_354
*1581 FILLER_11_357
*1582 FILLER_11_421
*1583 FILLER_11_425
*1584 FILLER_11_428
*1585 FILLER_11_492
*1586 FILLER_11_496