*SPEF "ieee 1481-1999"
*DESIGN "user_project_wrapper"
*DATE "11:11:11 Fri 11 11, 1111"
*VENDOR "OpenRCX"
*PROGRAM "Parallel Extraction"
*VERSION "1.0"
*DESIGN_FLOW "NAME_SCOPE LOCAL" "PIN_CAP NONE"
*DIVIDER /
*DELIMITER :
*BUS_DELIMITER []
*T_UNIT 1 NS
*C_UNIT 1 PF
*R_UNIT 1 OHM
*L_UNIT 1 HENRY

*NAME_MAP
*1 io_in[0]
*2 io_in[10]
*3 io_in[11]
*4 io_in[12]
*5 io_in[13]
*6 io_in[14]
*7 io_in[15]
*8 io_in[16]
*9 io_in[17]
*10 io_in[18]
*11 io_in[19]
*12 io_in[1]
*13 io_in[20]
*14 io_in[21]
*15 io_in[22]
*16 io_in[23]
*17 io_in[24]
*18 io_in[25]
*19 io_in[26]
*20 io_in[27]
*21 io_in[28]
*22 io_in[29]
*23 io_in[2]
*24 io_in[30]
*25 io_in[31]
*26 io_in[32]
*27 io_in[33]
*28 io_in[34]
*29 io_in[35]
*30 io_in[36]
*31 io_in[37]
*32 io_in[3]
*33 io_in[4]
*34 io_in[5]
*35 io_in[6]
*36 io_in[7]
*37 io_in[8]
*38 io_in[9]
*39 io_oeb[0]
*40 io_oeb[10]
*41 io_oeb[11]
*42 io_oeb[12]
*43 io_oeb[13]
*44 io_oeb[14]
*45 io_oeb[15]
*46 io_oeb[16]
*47 io_oeb[17]
*48 io_oeb[18]
*49 io_oeb[19]
*50 io_oeb[1]
*51 io_oeb[20]
*52 io_oeb[21]
*53 io_oeb[22]
*54 io_oeb[23]
*55 io_oeb[24]
*56 io_oeb[25]
*57 io_oeb[26]
*58 io_oeb[27]
*59 io_oeb[28]
*60 io_oeb[29]
*61 io_oeb[2]
*62 io_oeb[30]
*63 io_oeb[31]
*64 io_oeb[32]
*65 io_oeb[33]
*66 io_oeb[34]
*67 io_oeb[35]
*68 io_oeb[36]
*69 io_oeb[37]
*70 io_oeb[3]
*71 io_oeb[4]
*72 io_oeb[5]
*73 io_oeb[6]
*74 io_oeb[7]
*75 io_oeb[8]
*76 io_oeb[9]
*77 io_out[0]
*78 io_out[10]
*79 io_out[11]
*80 io_out[12]
*81 io_out[13]
*82 io_out[14]
*83 io_out[15]
*84 io_out[16]
*85 io_out[17]
*86 io_out[18]
*87 io_out[19]
*88 io_out[1]
*89 io_out[20]
*90 io_out[21]
*91 io_out[22]
*92 io_out[23]
*93 io_out[24]
*94 io_out[25]
*95 io_out[26]
*96 io_out[27]
*97 io_out[28]
*98 io_out[29]
*99 io_out[2]
*100 io_out[30]
*101 io_out[31]
*102 io_out[32]
*103 io_out[33]
*104 io_out[34]
*105 io_out[35]
*106 io_out[36]
*107 io_out[37]
*108 io_out[3]
*109 io_out[4]
*110 io_out[5]
*111 io_out[6]
*112 io_out[7]
*113 io_out[8]
*114 io_out[9]
*115 la_data_in[0]
*116 la_data_in[10]
*117 la_data_in[11]
*118 la_data_in[12]
*119 la_data_in[13]
*120 la_data_in[14]
*121 la_data_in[15]
*122 la_data_in[16]
*123 la_data_in[17]
*124 la_data_in[18]
*125 la_data_in[19]
*126 la_data_in[1]
*127 la_data_in[20]
*128 la_data_in[21]
*129 la_data_in[22]
*130 la_data_in[23]
*131 la_data_in[24]
*132 la_data_in[25]
*133 la_data_in[26]
*134 la_data_in[27]
*135 la_data_in[28]
*136 la_data_in[29]
*137 la_data_in[2]
*138 la_data_in[30]
*139 la_data_in[31]
*140 la_data_in[32]
*141 la_data_in[33]
*142 la_data_in[34]
*143 la_data_in[35]
*144 la_data_in[36]
*145 la_data_in[37]
*146 la_data_in[38]
*147 la_data_in[39]
*148 la_data_in[3]
*149 la_data_in[40]
*150 la_data_in[41]
*151 la_data_in[42]
*152 la_data_in[43]
*153 la_data_in[44]
*154 la_data_in[45]
*155 la_data_in[46]
*156 la_data_in[47]
*157 la_data_in[48]
*158 la_data_in[49]
*159 la_data_in[4]
*160 la_data_in[50]
*161 la_data_in[51]
*162 la_data_in[52]
*163 la_data_in[53]
*164 la_data_in[54]
*165 la_data_in[55]
*166 la_data_in[56]
*167 la_data_in[57]
*168 la_data_in[58]
*169 la_data_in[59]
*170 la_data_in[5]
*171 la_data_in[60]
*172 la_data_in[61]
*173 la_data_in[62]
*174 la_data_in[63]
*175 la_data_in[6]
*176 la_data_in[7]
*177 la_data_in[8]
*178 la_data_in[9]
*179 la_data_out[0]
*180 la_data_out[10]
*181 la_data_out[11]
*182 la_data_out[12]
*183 la_data_out[13]
*184 la_data_out[14]
*185 la_data_out[15]
*186 la_data_out[16]
*187 la_data_out[17]
*188 la_data_out[18]
*189 la_data_out[19]
*190 la_data_out[1]
*191 la_data_out[20]
*192 la_data_out[21]
*193 la_data_out[22]
*194 la_data_out[23]
*195 la_data_out[24]
*196 la_data_out[25]
*197 la_data_out[26]
*198 la_data_out[27]
*199 la_data_out[28]
*200 la_data_out[29]
*201 la_data_out[2]
*202 la_data_out[30]
*203 la_data_out[31]
*204 la_data_out[32]
*205 la_data_out[33]
*206 la_data_out[34]
*207 la_data_out[35]
*208 la_data_out[36]
*209 la_data_out[37]
*210 la_data_out[38]
*211 la_data_out[39]
*212 la_data_out[3]
*213 la_data_out[40]
*214 la_data_out[41]
*215 la_data_out[42]
*216 la_data_out[43]
*217 la_data_out[44]
*218 la_data_out[45]
*219 la_data_out[46]
*220 la_data_out[47]
*221 la_data_out[48]
*222 la_data_out[49]
*223 la_data_out[4]
*224 la_data_out[50]
*225 la_data_out[51]
*226 la_data_out[52]
*227 la_data_out[53]
*228 la_data_out[54]
*229 la_data_out[55]
*230 la_data_out[56]
*231 la_data_out[57]
*232 la_data_out[58]
*233 la_data_out[59]
*234 la_data_out[5]
*235 la_data_out[60]
*236 la_data_out[61]
*237 la_data_out[62]
*238 la_data_out[63]
*239 la_data_out[6]
*240 la_data_out[7]
*241 la_data_out[8]
*242 la_data_out[9]
*243 la_oenb[0]
*244 la_oenb[10]
*245 la_oenb[11]
*246 la_oenb[12]
*247 la_oenb[13]
*248 la_oenb[14]
*249 la_oenb[15]
*250 la_oenb[16]
*251 la_oenb[17]
*252 la_oenb[18]
*253 la_oenb[19]
*254 la_oenb[1]
*255 la_oenb[20]
*256 la_oenb[21]
*257 la_oenb[22]
*258 la_oenb[23]
*259 la_oenb[24]
*260 la_oenb[25]
*261 la_oenb[26]
*262 la_oenb[27]
*263 la_oenb[28]
*264 la_oenb[29]
*265 la_oenb[2]
*266 la_oenb[30]
*267 la_oenb[31]
*268 la_oenb[32]
*269 la_oenb[33]
*270 la_oenb[34]
*271 la_oenb[35]
*272 la_oenb[36]
*273 la_oenb[37]
*274 la_oenb[38]
*275 la_oenb[39]
*276 la_oenb[3]
*277 la_oenb[40]
*278 la_oenb[41]
*279 la_oenb[42]
*280 la_oenb[43]
*281 la_oenb[44]
*282 la_oenb[45]
*283 la_oenb[46]
*284 la_oenb[47]
*285 la_oenb[48]
*286 la_oenb[49]
*287 la_oenb[4]
*288 la_oenb[50]
*289 la_oenb[51]
*290 la_oenb[52]
*291 la_oenb[53]
*292 la_oenb[54]
*293 la_oenb[55]
*294 la_oenb[56]
*295 la_oenb[57]
*296 la_oenb[58]
*297 la_oenb[59]
*298 la_oenb[5]
*299 la_oenb[60]
*300 la_oenb[61]
*301 la_oenb[62]
*302 la_oenb[63]
*303 la_oenb[6]
*304 la_oenb[7]
*305 la_oenb[8]
*306 la_oenb[9]
*307 user_clock2
*308 user_irq[0]
*309 user_irq[1]
*310 user_irq[2]
*313 wb_clk_i
*314 wb_rst_i
*315 wbs_ack_o
*316 wbs_adr_i[0]
*317 wbs_adr_i[10]
*318 wbs_adr_i[11]
*319 wbs_adr_i[12]
*320 wbs_adr_i[13]
*321 wbs_adr_i[14]
*322 wbs_adr_i[15]
*323 wbs_adr_i[16]
*324 wbs_adr_i[17]
*325 wbs_adr_i[18]
*326 wbs_adr_i[19]
*327 wbs_adr_i[1]
*328 wbs_adr_i[20]
*329 wbs_adr_i[21]
*330 wbs_adr_i[22]
*331 wbs_adr_i[23]
*332 wbs_adr_i[24]
*333 wbs_adr_i[25]
*334 wbs_adr_i[26]
*335 wbs_adr_i[27]
*336 wbs_adr_i[28]
*337 wbs_adr_i[29]
*338 wbs_adr_i[2]
*339 wbs_adr_i[30]
*340 wbs_adr_i[31]
*341 wbs_adr_i[3]
*342 wbs_adr_i[4]
*343 wbs_adr_i[5]
*344 wbs_adr_i[6]
*345 wbs_adr_i[7]
*346 wbs_adr_i[8]
*347 wbs_adr_i[9]
*348 wbs_cyc_i
*349 wbs_dat_i[0]
*350 wbs_dat_i[10]
*351 wbs_dat_i[11]
*352 wbs_dat_i[12]
*353 wbs_dat_i[13]
*354 wbs_dat_i[14]
*355 wbs_dat_i[15]
*356 wbs_dat_i[16]
*357 wbs_dat_i[17]
*358 wbs_dat_i[18]
*359 wbs_dat_i[19]
*360 wbs_dat_i[1]
*361 wbs_dat_i[20]
*362 wbs_dat_i[21]
*363 wbs_dat_i[22]
*364 wbs_dat_i[23]
*365 wbs_dat_i[24]
*366 wbs_dat_i[25]
*367 wbs_dat_i[26]
*368 wbs_dat_i[27]
*369 wbs_dat_i[28]
*370 wbs_dat_i[29]
*371 wbs_dat_i[2]
*372 wbs_dat_i[30]
*373 wbs_dat_i[31]
*374 wbs_dat_i[3]
*375 wbs_dat_i[4]
*376 wbs_dat_i[5]
*377 wbs_dat_i[6]
*378 wbs_dat_i[7]
*379 wbs_dat_i[8]
*380 wbs_dat_i[9]
*381 wbs_dat_o[0]
*382 wbs_dat_o[10]
*383 wbs_dat_o[11]
*384 wbs_dat_o[12]
*385 wbs_dat_o[13]
*386 wbs_dat_o[14]
*387 wbs_dat_o[15]
*388 wbs_dat_o[16]
*389 wbs_dat_o[17]
*390 wbs_dat_o[18]
*391 wbs_dat_o[19]
*392 wbs_dat_o[1]
*393 wbs_dat_o[20]
*394 wbs_dat_o[21]
*395 wbs_dat_o[22]
*396 wbs_dat_o[23]
*397 wbs_dat_o[24]
*398 wbs_dat_o[25]
*399 wbs_dat_o[26]
*400 wbs_dat_o[27]
*401 wbs_dat_o[28]
*402 wbs_dat_o[29]
*403 wbs_dat_o[2]
*404 wbs_dat_o[30]
*405 wbs_dat_o[31]
*406 wbs_dat_o[3]
*407 wbs_dat_o[4]
*408 wbs_dat_o[5]
*409 wbs_dat_o[6]
*410 wbs_dat_o[7]
*411 wbs_dat_o[8]
*412 wbs_dat_o[9]
*413 wbs_sel_i[0]
*414 wbs_sel_i[1]
*415 wbs_sel_i[2]
*416 wbs_sel_i[3]
*417 wbs_stb_i
*418 wbs_we_i
*419 mprj

*PORTS
io_in[0] I
io_in[10] I
io_in[11] I
io_in[12] I
io_in[13] I
io_in[14] I
io_in[15] I
io_in[16] I
io_in[17] I
io_in[18] I
io_in[19] I
io_in[1] I
io_in[20] I
io_in[21] I
io_in[22] I
io_in[23] I
io_in[24] I
io_in[25] I
io_in[26] I
io_in[27] I
io_in[28] I
io_in[29] I
io_in[2] I
io_in[30] I
io_in[31] I
io_in[32] I
io_in[33] I
io_in[34] I
io_in[35] I
io_in[36] I
io_in[37] I
io_in[3] I
io_in[4] I
io_in[5] I
io_in[6] I
io_in[7] I
io_in[8] I
io_in[9] I
io_oeb[0] O
io_oeb[10] O
io_oeb[11] O
io_oeb[12] O
io_oeb[13] O
io_oeb[14] O
io_oeb[15] O
io_oeb[16] O
io_oeb[17] O
io_oeb[18] O
io_oeb[19] O
io_oeb[1] O
io_oeb[20] O
io_oeb[21] O
io_oeb[22] O
io_oeb[23] O
io_oeb[24] O
io_oeb[25] O
io_oeb[26] O
io_oeb[27] O
io_oeb[28] O
io_oeb[29] O
io_oeb[2] O
io_oeb[30] O
io_oeb[31] O
io_oeb[32] O
io_oeb[33] O
io_oeb[34] O
io_oeb[35] O
io_oeb[36] O
io_oeb[37] O
io_oeb[3] O
io_oeb[4] O
io_oeb[5] O
io_oeb[6] O
io_oeb[7] O
io_oeb[8] O
io_oeb[9] O
io_out[0] O
io_out[10] O
io_out[11] O
io_out[12] O
io_out[13] O
io_out[14] O
io_out[15] O
io_out[16] O
io_out[17] O
io_out[18] O
io_out[19] O
io_out[1] O
io_out[20] O
io_out[21] O
io_out[22] O
io_out[23] O
io_out[24] O
io_out[25] O
io_out[26] O
io_out[27] O
io_out[28] O
io_out[29] O
io_out[2] O
io_out[30] O
io_out[31] O
io_out[32] O
io_out[33] O
io_out[34] O
io_out[35] O
io_out[36] O
io_out[37] O
io_out[3] O
io_out[4] O
io_out[5] O
io_out[6] O
io_out[7] O
io_out[8] O
io_out[9] O
la_data_in[0] I
la_data_in[10] I
la_data_in[11] I
la_data_in[12] I
la_data_in[13] I
la_data_in[14] I
la_data_in[15] I
la_data_in[16] I
la_data_in[17] I
la_data_in[18] I
la_data_in[19] I
la_data_in[1] I
la_data_in[20] I
la_data_in[21] I
la_data_in[22] I
la_data_in[23] I
la_data_in[24] I
la_data_in[25] I
la_data_in[26] I
la_data_in[27] I
la_data_in[28] I
la_data_in[29] I
la_data_in[2] I
la_data_in[30] I
la_data_in[31] I
la_data_in[32] I
la_data_in[33] I
la_data_in[34] I
la_data_in[35] I
la_data_in[36] I
la_data_in[37] I
la_data_in[38] I
la_data_in[39] I
la_data_in[3] I
la_data_in[40] I
la_data_in[41] I
la_data_in[42] I
la_data_in[43] I
la_data_in[44] I
la_data_in[45] I
la_data_in[46] I
la_data_in[47] I
la_data_in[48] I
la_data_in[49] I
la_data_in[4] I
la_data_in[50] I
la_data_in[51] I
la_data_in[52] I
la_data_in[53] I
la_data_in[54] I
la_data_in[55] I
la_data_in[56] I
la_data_in[57] I
la_data_in[58] I
la_data_in[59] I
la_data_in[5] I
la_data_in[60] I
la_data_in[61] I
la_data_in[62] I
la_data_in[63] I
la_data_in[6] I
la_data_in[7] I
la_data_in[8] I
la_data_in[9] I
la_data_out[0] O
la_data_out[10] O
la_data_out[11] O
la_data_out[12] O
la_data_out[13] O
la_data_out[14] O
la_data_out[15] O
la_data_out[16] O
la_data_out[17] O
la_data_out[18] O
la_data_out[19] O
la_data_out[1] O
la_data_out[20] O
la_data_out[21] O
la_data_out[22] O
la_data_out[23] O
la_data_out[24] O
la_data_out[25] O
la_data_out[26] O
la_data_out[27] O
la_data_out[28] O
la_data_out[29] O
la_data_out[2] O
la_data_out[30] O
la_data_out[31] O
la_data_out[32] O
la_data_out[33] O
la_data_out[34] O
la_data_out[35] O
la_data_out[36] O
la_data_out[37] O
la_data_out[38] O
la_data_out[39] O
la_data_out[3] O
la_data_out[40] O
la_data_out[41] O
la_data_out[42] O
la_data_out[43] O
la_data_out[44] O
la_data_out[45] O
la_data_out[46] O
la_data_out[47] O
la_data_out[48] O
la_data_out[49] O
la_data_out[4] O
la_data_out[50] O
la_data_out[51] O
la_data_out[52] O
la_data_out[53] O
la_data_out[54] O
la_data_out[55] O
la_data_out[56] O
la_data_out[57] O
la_data_out[58] O
la_data_out[59] O
la_data_out[5] O
la_data_out[60] O
la_data_out[61] O
la_data_out[62] O
la_data_out[63] O
la_data_out[6] O
la_data_out[7] O
la_data_out[8] O
la_data_out[9] O
la_oenb[0] I
la_oenb[10] I
la_oenb[11] I
la_oenb[12] I
la_oenb[13] I
la_oenb[14] I
la_oenb[15] I
la_oenb[16] I
la_oenb[17] I
la_oenb[18] I
la_oenb[19] I
la_oenb[1] I
la_oenb[20] I
la_oenb[21] I
la_oenb[22] I
la_oenb[23] I
la_oenb[24] I
la_oenb[25] I
la_oenb[26] I
la_oenb[27] I
la_oenb[28] I
la_oenb[29] I
la_oenb[2] I
la_oenb[30] I
la_oenb[31] I
la_oenb[32] I
la_oenb[33] I
la_oenb[34] I
la_oenb[35] I
la_oenb[36] I
la_oenb[37] I
la_oenb[38] I
la_oenb[39] I
la_oenb[3] I
la_oenb[40] I
la_oenb[41] I
la_oenb[42] I
la_oenb[43] I
la_oenb[44] I
la_oenb[45] I
la_oenb[46] I
la_oenb[47] I
la_oenb[48] I
la_oenb[49] I
la_oenb[4] I
la_oenb[50] I
la_oenb[51] I
la_oenb[52] I
la_oenb[53] I
la_oenb[54] I
la_oenb[55] I
la_oenb[56] I
la_oenb[57] I
la_oenb[58] I
la_oenb[59] I
la_oenb[5] I
la_oenb[60] I
la_oenb[61] I
la_oenb[62] I
la_oenb[63] I
la_oenb[6] I
la_oenb[7] I
la_oenb[8] I
la_oenb[9] I
user_clock2 I
user_irq[0] O
user_irq[1] O
user_irq[2] O
wb_clk_i I
wb_rst_i I
wbs_ack_o O
wbs_adr_i[0] I
wbs_adr_i[10] I
wbs_adr_i[11] I
wbs_adr_i[12] I
wbs_adr_i[13] I
wbs_adr_i[14] I
wbs_adr_i[15] I
wbs_adr_i[16] I
wbs_adr_i[17] I
wbs_adr_i[18] I
wbs_adr_i[19] I
wbs_adr_i[1] I
wbs_adr_i[20] I
wbs_adr_i[21] I
wbs_adr_i[22] I
wbs_adr_i[23] I
wbs_adr_i[24] I
wbs_adr_i[25] I
wbs_adr_i[26] I
wbs_adr_i[27] I
wbs_adr_i[28] I
wbs_adr_i[29] I
wbs_adr_i[2] I
wbs_adr_i[30] I
wbs_adr_i[31] I
wbs_adr_i[3] I
wbs_adr_i[4] I
wbs_adr_i[5] I
wbs_adr_i[6] I
wbs_adr_i[7] I
wbs_adr_i[8] I
wbs_adr_i[9] I
wbs_cyc_i I
wbs_dat_i[0] I
wbs_dat_i[10] I
wbs_dat_i[11] I
wbs_dat_i[12] I
wbs_dat_i[13] I
wbs_dat_i[14] I
wbs_dat_i[15] I
wbs_dat_i[16] I
wbs_dat_i[17] I
wbs_dat_i[18] I
wbs_dat_i[19] I
wbs_dat_i[1] I
wbs_dat_i[20] I
wbs_dat_i[21] I
wbs_dat_i[22] I
wbs_dat_i[23] I
wbs_dat_i[24] I
wbs_dat_i[25] I
wbs_dat_i[26] I
wbs_dat_i[27] I
wbs_dat_i[28] I
wbs_dat_i[29] I
wbs_dat_i[2] I
wbs_dat_i[30] I
wbs_dat_i[31] I
wbs_dat_i[3] I
wbs_dat_i[4] I
wbs_dat_i[5] I
wbs_dat_i[6] I
wbs_dat_i[7] I
wbs_dat_i[8] I
wbs_dat_i[9] I
wbs_dat_o[0] O
wbs_dat_o[10] O
wbs_dat_o[11] O
wbs_dat_o[12] O
wbs_dat_o[13] O
wbs_dat_o[14] O
wbs_dat_o[15] O
wbs_dat_o[16] O
wbs_dat_o[17] O
wbs_dat_o[18] O
wbs_dat_o[19] O
wbs_dat_o[1] O
wbs_dat_o[20] O
wbs_dat_o[21] O
wbs_dat_o[22] O
wbs_dat_o[23] O
wbs_dat_o[24] O
wbs_dat_o[25] O
wbs_dat_o[26] O
wbs_dat_o[27] O
wbs_dat_o[28] O
wbs_dat_o[29] O
wbs_dat_o[2] O
wbs_dat_o[30] O
wbs_dat_o[31] O
wbs_dat_o[3] O
wbs_dat_o[4] O
wbs_dat_o[5] O
wbs_dat_o[6] O
wbs_dat_o[7] O
wbs_dat_o[8] O
wbs_dat_o[9] O
wbs_sel_i[0] I
wbs_sel_i[1] I
wbs_sel_i[2] I
wbs_sel_i[3] I
wbs_stb_i I
wbs_we_i I

*D_NET *1 0.482636
*CONN
*P io_in[0] I
*I *419:io_in[0] I *D tiny_user_project
*CAP
1 io_in[0] 0.00387638
2 *419:io_in[0] 0.00155467
3 *1:14 0.0299212
4 *1:13 0.0283665
5 *1:11 0.0656504
6 *1:10 0.0695268
7 *419:io_in[0] *419:io_in[27] 0
8 *419:io_in[0] *20:19 0.00226846
9 *1:11 *116:16 0.0685865
10 *1:14 *4:16 0.00632443
11 *1:14 *212:13 0.145558
12 *1:14 *263:15 0.0610021
*RES
1 io_in[0] *1:10 39.375 
2 *1:10 *1:11 576.63 
3 *1:11 *1:13 4.5 
4 *1:13 *1:14 479.79 
5 *1:14 *419:io_in[0] 29.61 
*END

*D_NET *2 0.214413
*CONN
*P io_in[10] I
*I *419:io_in[10] I *D tiny_user_project
*CAP
1 io_in[10] 0.00475159
2 *419:io_in[10] 0.00105761
3 *2:12 0.00948761
4 *2:11 0.00843
5 *2:9 0.0696761
6 *2:7 0.0744277
7 *419:io_in[10] *220:12 0.000691757
8 *2:12 *81:13 0.0114927
9 *2:12 *227:13 0.00915269
10 *2:12 *246:11 0.0243252
11 *2:12 *285:19 0.000919844
*RES
1 io_in[10] *2:7 37.305 
2 *2:7 *2:9 543.24 
3 *2:9 *2:11 4.5 
4 *2:11 *2:12 130.41 
5 *2:12 *419:io_in[10] 22.5 
*END

*D_NET *3 0.32645
*CONN
*P io_in[11] I
*I *419:io_in[11] I *D tiny_user_project
*CAP
1 io_in[11] 0.000363112
2 *419:io_in[11] 0.00163715
3 *3:16 0.0205514
4 *3:15 0.0189143
5 *3:13 0.0920689
6 *3:11 0.092432
7 *419:io_in[11] *419:io_in[14] 6.67147e-05
8 *419:io_in[11] *103:12 0
9 *3:16 *73:13 0.0214906
10 *3:16 *75:13 0.049123
11 *3:16 *182:13 0.0298029
*RES
1 io_in[11] *3:11 3.195 
2 *3:11 *3:13 582.39 
3 *3:13 *3:15 4.5 
4 *3:15 *3:16 265.95 
5 *3:16 *419:io_in[11] 25.2 
*END

*D_NET *4 0.258482
*CONN
*P io_in[12] I
*I *419:io_in[12] I *D tiny_user_project
*CAP
1 io_in[12] 0.000167227
2 *419:io_in[12] 0.00134487
3 *4:16 0.0308444
4 *4:15 0.0294996
5 *4:13 0.074881
6 *4:11 0.0750482
7 *419:io_in[12] *419:la_oenb[28] 0.00225905
8 *4:16 *82:15 0.0381136
9 *1:14 *4:16 0.00632443
*RES
1 io_in[12] *4:11 2.115 
2 *4:11 *4:13 585.09 
3 *4:13 *4:15 4.5 
4 *4:15 *4:16 277.83 
5 *4:16 *419:io_in[12] 27.72 
*END

*D_NET *5 0.310034
*CONN
*P io_in[13] I
*I *419:io_in[13] I *D tiny_user_project
*CAP
1 io_in[13] 0.0752013
2 *419:io_in[13] 0.00247841
3 *5:8 0.0382741
4 *5:7 0.0357957
5 *5:5 0.0752013
6 *419:io_in[13] *140:33 0.000154731
7 *5:8 *120:19 0.0370234
8 *5:8 *143:19 0.0379468
9 *5:8 *223:14 0.00795875
*RES
1 io_in[13] *5:5 587.925 
2 *5:5 *5:7 4.5 
3 *5:7 *5:8 383.49 
4 *5:8 *419:io_in[13] 31.32 
*END

*D_NET *6 0.314035
*CONN
*P io_in[14] I
*I *419:io_in[14] I *D tiny_user_project
*CAP
1 io_in[14] 0.000264341
2 *419:io_in[14] 0.00289492
3 *6:16 0.0550074
4 *6:15 0.0521125
5 *6:13 0.0754742
6 *6:11 0.0757385
7 *419:io_in[14] *419:la_data_in[42] 0.000475132
8 *419:io_in[14] *103:9 0.000154731
9 *6:16 *70:13 0.0327192
10 *6:16 *255:11 0.0191274
11 *419:io_in[11] *419:io_in[14] 6.67147e-05
*RES
1 io_in[14] *6:11 2.655 
2 *6:11 *6:13 590.49 
3 *6:13 *6:15 4.5 
4 *6:15 *6:16 459.09 
5 *6:16 *419:io_in[14] 35.55 
*END

*D_NET *7 0.214596
*CONN
*P io_in[15] I
*I *419:io_in[15] I *D tiny_user_project
*CAP
1 io_in[15] 0.0417752
2 *419:io_in[15] 8.33608e-05
3 *7:11 0.00679722
4 *7:8 0.0654397
5 *7:7 0.0587258
6 *7:5 0.0417752
*RES
1 io_in[15] *7:5 321.525 
2 *7:5 *7:7 4.5 
3 *7:7 *7:8 457.83 
4 *7:8 *7:11 48.87 
5 *7:11 *419:io_in[15] 9.63 
*END

*D_NET *8 0.220274
*CONN
*P io_in[16] I
*I *419:io_in[16] I *D tiny_user_project
*CAP
1 io_in[16] 0.000224836
2 *419:io_in[16] 0.000415288
3 *8:22 0.0255961
4 *8:21 0.0251808
5 *8:19 0.0193123
6 *8:18 0.0193123
7 *8:16 0.00664634
8 *8:15 0.00664634
9 *8:13 0.0490307
10 *8:11 0.0492555
11 *8:13 *227:59 0.00696142
12 *8:19 *157:9 0
13 *8:22 *127:16 0.0116921
*RES
1 io_in[16] *8:11 2.475 
2 *8:11 *8:13 383.67 
3 *8:13 *8:15 4.5 
4 *8:15 *8:16 50.31 
5 *8:16 *8:18 4.5 
6 *8:18 *8:19 147.15 
7 *8:19 *8:21 4.5 
8 *8:21 *8:22 201.24 
9 *8:22 *419:io_in[16] 3.015 
*END

*D_NET *9 0.146828
*CONN
*P io_in[17] I
*I *419:io_in[17] I *D tiny_user_project
*CAP
1 io_in[17] 0.0013584
2 *419:io_in[17] 0.000434686
3 *9:14 0.0180749
4 *9:13 0.0176402
5 *9:11 0.0487619
6 *9:10 0.0501203
7 *419:io_in[17] *419:la_data_in[10] 2.23347e-05
8 *9:10 *46:17 0.000181847
9 *9:11 *278:13 0
10 *9:14 *419:la_data_in[10] 0.0102333
11 *9:14 *152:12 0
12 *9:14 *384:14 0
*RES
1 io_in[17] *9:10 19.935 
2 *9:10 *9:11 370.71 
3 *9:11 *9:13 4.5 
4 *9:13 *9:14 146.07 
5 *9:14 *419:io_in[17] 11.385 
*END

*D_NET *10 0.125555
*CONN
*P io_in[18] I
*I *419:io_in[18] I *D tiny_user_project
*CAP
1 io_in[18] 0.0014769
2 *419:io_in[18] 8.33608e-05
3 *10:17 0.0338219
4 *10:16 0.0337386
5 *10:14 0.0135779
6 *10:13 0.0135779
7 *10:11 0.0139008
8 *10:10 0.0153777
9 *10:10 *86:18 0
*RES
1 io_in[18] *10:10 19.755 
2 *10:10 *10:11 106.65 
3 *10:11 *10:13 4.5 
4 *10:13 *10:14 105.93 
5 *10:14 *10:16 4.5 
6 *10:16 *10:17 252.27 
7 *10:17 *419:io_in[18] 9.63 
*END

*D_NET *11 0.270197
*CONN
*P io_in[19] I
*I *419:io_in[19] I *D tiny_user_project
*CAP
1 io_in[19] 0.00582473
2 *419:io_in[19] 0.00261233
3 *11:19 0.050879
4 *11:18 0.0482667
5 *11:16 0.0104714
6 *11:15 0.0104714
7 *11:13 0.00582473
8 *11:19 *67:12 0.0740336
9 *11:19 *130:11 0.0618129
10 *11:19 *152:17 0
*RES
1 io_in[19] *11:13 45.585 
2 *11:13 *11:15 4.5 
3 *11:15 *11:16 81.27 
4 *11:16 *11:18 4.5 
5 *11:18 *11:19 532.53 
6 *11:19 *419:io_in[19] 21.015 
*END

*D_NET *12 0.82107
*CONN
*P io_in[1] I
*I *419:io_in[1] I *D tiny_user_project
*CAP
1 io_in[1] 0.000488121
2 *419:io_in[1] 0.00106797
3 *12:11 0.00864525
4 *12:10 0.00757728
5 *12:8 0.00312292
6 *12:7 0.00361104
7 *419:io_in[1] *419:wbs_adr_i[24] 2.33488e-05
8 *12:8 *39:12 0
9 *12:8 *50:14 0.188275
10 *12:8 *77:14 0.204994
11 *12:11 *38:11 0.219112
12 *12:11 *68:11 0.0355516
13 *12:11 *74:11 0.00630009
14 *12:11 *235:11 0.142302
*RES
1 io_in[1] *12:7 8.325 
2 *12:7 *12:8 521.73 
3 *12:8 *12:10 4.5 
4 *12:10 *12:11 555.93 
5 *12:11 *419:io_in[1] 28.8 
*END

*D_NET *13 0.133989
*CONN
*P io_in[20] I
*I *419:io_in[20] I *D tiny_user_project
*CAP
1 io_in[20] 0.0429051
2 *419:io_in[20] 0.00100727
3 *13:13 0.00565164
4 *13:8 0.0201377
5 *13:7 0.0154933
6 *13:5 0.0429051
7 *419:io_in[20] *72:11 0.0014329
8 *419:io_in[20] *131:22 0.00345523
9 *13:13 *231:10 0
10 *13:13 *385:10 0.00100019
*RES
1 io_in[20] *13:5 329.625 
2 *13:5 *13:7 4.5 
3 *13:7 *13:8 120.15 
4 *13:8 *13:13 42.03 
5 *13:13 *419:io_in[20] 26.73 
*END

*D_NET *14 0.280265
*CONN
*P io_in[21] I
*I *419:io_in[21] I *D tiny_user_project
*CAP
1 io_in[21] 0.00173254
2 *419:io_in[21] 0.000696659
3 *14:14 0.00597853
4 *14:13 0.00528187
5 *14:11 0.076245
6 *14:10 0.0779776
7 *419:io_in[21] *419:la_data_in[36] 6.6972e-05
8 *14:10 *54:17 0.000962916
9 *14:14 *419:la_oenb[23] 0.00148726
10 *14:14 *17:19 0.0058182
11 *14:14 *18:19 0.0407013
12 *14:14 *46:11 0.0337775
13 *14:14 *181:16 0.0115583
14 *14:14 *200:13 0.00263461
15 *14:14 *383:11 0.00842512
16 *14:14 *386:15 0.00206295
17 *14:14 *401:13 0.00485801
*RES
1 io_in[21] *14:10 25.335 
2 *14:10 *14:11 579.33 
3 *14:11 *14:13 4.5 
4 *14:13 *14:14 221.49 
5 *14:14 *419:io_in[21] 17.9765 
*END

*D_NET *15 0.198162
*CONN
*P io_in[22] I
*I *419:io_in[22] I *D tiny_user_project
*CAP
1 io_in[22] 0.00486662
2 *419:io_in[22] 0
3 *15:20 0.00523268
4 *15:12 0.0546351
5 *15:11 0.0494024
6 *15:9 0.0377594
7 *15:7 0.042626
8 *15:20 *419:la_oenb[2] 0
9 *15:20 *124:19 0.00332343
10 *15:20 *187:14 0.000229913
11 *15:20 *225:20 5.1403e-05
12 *15:20 *227:56 3.54095e-05
*RES
1 io_in[22] *15:7 37.305 
2 *15:7 *15:9 290.34 
3 *15:9 *15:11 4.5 
4 *15:11 *15:12 383.85 
5 *15:12 *15:20 48.87 
6 *15:20 *419:io_in[22] 4.5 
*END

*D_NET *16 0.375144
*CONN
*P io_in[23] I
*I *419:io_in[23] I *D tiny_user_project
*CAP
1 io_in[23] 0.00105188
2 *419:io_in[23] 0.00116846
3 *16:11 0.0499882
4 *16:10 0.0488197
5 *16:8 0.0336851
6 *16:7 0.034737
7 *16:8 *54:17 0.192561
8 *16:8 *86:18 0.000239735
9 *16:11 io_out[18] 1.47961e-05
10 *16:11 *60:12 0.0128775
*RES
1 io_in[23] *16:7 12.645 
2 *16:7 *16:8 497.07 
3 *16:8 *16:10 4.5 
4 *16:10 *16:11 384.93 
5 *16:11 *419:io_in[23] 13.095 
*END

*D_NET *17 0.39873
*CONN
*P io_in[24] I
*I *419:io_in[24] I *D tiny_user_project
*CAP
1 io_in[24] 0.000201168
2 *419:io_in[24] 0.000668055
3 *17:19 0.0186227
4 *17:18 0.0179547
5 *17:16 0.0751885
6 *17:15 0.0751885
7 *17:13 0.041005
8 *17:11 0.0412062
9 *419:io_in[24] *419:wbs_dat_i[2] 6.01037e-05
10 *17:19 *18:19 0.0599479
11 *17:19 *42:11 0.0171264
12 *17:19 *46:11 0.0435706
13 *17:19 *98:11 0
14 *17:19 *138:20 0.00217186
15 *14:14 *17:19 0.0058182
*RES
1 io_in[24] *17:11 1.935 
2 *17:11 *17:13 260.01 
3 *17:13 *17:15 4.5 
4 *17:15 *17:16 572.85 
5 *17:16 *17:18 4.5 
6 *17:18 *17:19 294.93 
7 *17:19 *419:io_in[24] 17.6165 
*END

*D_NET *18 0.324938
*CONN
*P io_in[25] I
*I *419:io_in[25] I *D tiny_user_project
*CAP
1 io_in[25] 0.000125876
2 *419:io_in[25] 0.000689208
3 *18:19 0.0068083
4 *18:18 0.00611909
5 *18:16 0.0663631
6 *18:15 0.0663631
7 *18:13 0.0350783
8 *18:11 0.0352041
9 *18:16 *359:13 0
10 *18:19 *98:11 0
11 *18:19 *383:11 0.00753759
12 *14:14 *18:19 0.0407013
13 *17:19 *18:19 0.0599479
*RES
1 io_in[25] *18:11 1.395 
2 *18:11 *18:13 222.21 
3 *18:13 *18:15 4.5 
4 *18:15 *18:16 505.53 
5 *18:16 *18:18 4.5 
6 *18:18 *18:19 190.17 
7 *18:19 *419:io_in[25] 17.7965 
*END

*D_NET *19 0.170756
*CONN
*P io_in[26] I
*I *419:io_in[26] I *D tiny_user_project
*CAP
1 io_in[26] 0.00192467
2 *419:io_in[26] 0.000357209
3 *19:11 0.0489834
4 *19:10 0.0486262
5 *19:8 0.0344555
6 *19:7 0.0363802
7 *419:io_in[26] *419:wbs_stb_i 2.85162e-05
*RES
1 io_in[26] *19:7 18.765 
2 *19:7 *19:8 264.87 
3 *19:8 *19:10 4.5 
4 *19:10 *19:11 370.71 
5 *19:11 *419:io_in[26] 11.88 
*END

*D_NET *20 0.183372
*CONN
*P io_in[27] I
*I *419:io_in[27] I *D tiny_user_project
*CAP
1 io_in[27] 0.00035683
2 *419:io_in[27] 0.000150089
3 *20:19 0.0101342
4 *20:18 0.00998414
5 *20:16 0.0241857
6 *20:15 0.0241857
7 *20:13 0.0393352
8 *20:11 0.039692
9 *20:16 *368:11 0.0330795
10 *419:io_in[0] *419:io_in[27] 0
11 *419:io_in[0] *20:19 0.00226846
*RES
1 io_in[27] *20:11 3.015 
2 *20:11 *20:13 306.09 
3 *20:13 *20:15 4.5 
4 *20:15 *20:16 224.19 
5 *20:16 *20:18 4.5 
6 *20:18 *20:19 78.93 
7 *20:19 *419:io_in[27] 10.17 
*END

*D_NET *21 0.137959
*CONN
*P io_in[28] I
*I *419:io_in[28] I *D tiny_user_project
*CAP
1 io_in[28] 0.000249598
2 *419:io_in[28] 0.000214255
3 *21:19 0.00955611
4 *21:18 0.00934185
5 *21:16 0.0185323
6 *21:15 0.0185323
7 *21:13 0.0406414
8 *21:11 0.040891
9 *419:io_in[28] *419:wbs_dat_i[10] 0
*RES
1 io_in[28] *21:11 2.475 
2 *21:11 *21:13 316.71 
3 *21:13 *21:15 4.5 
4 *21:15 *21:16 137.79 
5 *21:16 *21:18 4.5 
6 *21:18 *21:19 68.31 
7 *21:19 *419:io_in[28] 10.71 
*END

*D_NET *22 0.129243
*CONN
*P io_in[29] I
*I *419:io_in[29] I *D tiny_user_project
*CAP
1 io_in[29] 0.00226519
2 *419:io_in[29] 0.000295472
3 *22:11 0.0487289
4 *22:10 0.0484334
5 *22:8 0.0135502
6 *22:7 0.0158154
7 *419:io_in[29] *419:la_oenb[28] 0.000154731
8 *22:8 *314:13 0
*RES
1 io_in[29] *22:7 21.465 
2 *22:7 *22:8 103.95 
3 *22:8 *22:10 4.5 
4 *22:10 *22:11 368.01 
5 *22:11 *419:io_in[29] 11.79 
*END

*D_NET *23 0.48202
*CONN
*P io_in[2] I
*I *419:io_in[2] I *D tiny_user_project
*CAP
1 io_in[2] 0.00040189
2 *419:io_in[2] 0.000581922
3 *23:11 0.0268708
4 *23:10 0.0262889
5 *23:8 0.00623946
6 *23:7 0.00664135
7 *419:io_in[2] *419:io_in[3] 0.000221785
8 *419:io_in[2] *167:16 0.000366411
9 *419:io_in[2] *207:5 0.000499553
10 *419:io_in[2] *337:16 9.29043e-05
11 *419:io_in[2] *379:24 0.00110495
12 *23:8 *32:8 0.149962
13 *23:8 *39:12 0.00138345
14 *23:8 *42:14 0.0854067
15 *23:8 *50:14 0.027087
16 *23:8 *99:14 0.00755167
17 *23:11 *112:52 0.141319
*RES
1 io_in[2] *23:7 7.605 
2 *23:7 *23:8 448.11 
3 *23:8 *23:10 4.5 
4 *23:10 *23:11 371.43 
5 *23:11 *419:io_in[2] 16.695 
*END

*D_NET *24 0.280425
*CONN
*P io_in[30] I
*I *419:io_in[30] I *D tiny_user_project
*CAP
1 io_in[30] 0.000113196
2 *419:io_in[30] 0.00122336
3 *24:19 0.0177676
4 *24:18 0.0165442
5 *24:16 0.0223982
6 *24:15 0.0223982
7 *24:13 0.0246002
8 *24:11 0.0247134
9 *419:io_in[30] *79:10 4.1217e-05
10 *419:io_in[30] *200:14 0.0017201
11 *24:16 *387:20 0
12 *24:19 *52:11 0.108348
13 *24:19 *340:16 0.0290659
14 *24:19 *355:16 0.00393658
15 *24:19 *390:11 0.0075554
*RES
1 io_in[30] *24:11 1.395 
2 *24:11 *24:13 189.81 
3 *24:13 *24:15 4.5 
4 *24:15 *24:16 170.55 
5 *24:16 *24:18 4.5 
6 *24:18 *24:19 329.31 
7 *24:19 *419:io_in[30] 23.3257 
*END

*D_NET *25 0.108259
*CONN
*P io_in[31] I
*I *419:io_in[31] I *D tiny_user_project
*CAP
1 io_in[31] 0.00308194
2 *419:io_in[31] 0.000148877
3 *25:11 0.0466522
4 *25:10 0.0495853
5 *25:11 *275:20 0.00879042
*RES
1 io_in[31] *25:10 32.175 
2 *25:10 *25:11 370.17 
3 *25:11 *419:io_in[31] 10.17 
*END

*D_NET *26 0.244958
*CONN
*P io_in[32] I
*I *419:io_in[32] I *D tiny_user_project
*CAP
1 io_in[32] 0.000323383
2 *419:io_in[32] 0.00192728
3 *26:19 0.0391272
4 *26:18 0.0419404
5 *26:13 0.0223606
6 *26:11 0.0179434
7 *26:18 wbs_dat_o[9] 0
8 *26:19 *93:11 0.121336
9 *26:19 *105:11 0
10 *26:19 *302:16 0
11 *26:19 *377:16 0
*RES
1 io_in[32] *26:11 3.015 
2 *26:11 *26:13 135.81 
3 *26:13 *26:18 44.37 
4 *26:18 *26:19 423.45 
5 *26:19 *419:io_in[32] 25.5365 
*END

*D_NET *27 0.120298
*CONN
*P io_in[33] I
*I *419:io_in[33] I *D tiny_user_project
*CAP
1 io_in[33] 0.00321133
2 *419:io_in[33] 0.0001287
3 *27:19 0.048388
4 *27:18 0.0482593
5 *27:16 0.00854967
6 *27:15 0.011761
7 *27:16 wbs_ack_o 0
*RES
1 io_in[33] *27:15 29.385 
2 *27:15 *27:16 65.07 
3 *27:16 *27:18 4.5 
4 *27:18 *27:19 362.61 
5 *27:19 *419:io_in[33] 9.99 
*END

*D_NET *28 0.198818
*CONN
*P io_in[34] I
*I *419:io_in[34] I *D tiny_user_project
*CAP
1 io_in[34] 0.000177869
2 *419:io_in[34] 0.000230761
3 *28:19 0.0502009
4 *28:18 0.0499701
5 *28:16 0.0385062
6 *28:15 0.0385062
7 *28:13 0.00868316
8 *28:11 0.00886103
9 *28:16 *403:18 0
10 *28:19 *419:la_data_in[27] 0.00368227
*RES
1 io_in[34] *28:11 1.935 
2 *28:11 *28:13 65.61 
3 *28:13 *28:15 4.5 
4 *28:15 *28:16 294.39 
5 *28:16 *28:18 4.5 
6 *28:18 *28:19 319.41 
7 *28:19 *419:io_in[34] 10.17 
*END

*D_NET *29 0.333849
*CONN
*P io_in[35] I
*I *419:io_in[35] I *D tiny_user_project
*CAP
1 io_in[35] 0.000113196
2 *419:io_in[35] 0.00165385
3 *29:19 0.0265543
4 *29:18 0.0249005
5 *29:16 0.0537042
6 *29:15 0.0537042
7 *29:13 0.0261879
8 *29:11 0.0263011
9 *419:io_in[35] *419:la_data_in[31] 0.000576946
10 *29:16 *388:15 0
11 *29:19 *75:16 0
12 *29:19 *124:22 0.0323007
13 *29:19 *132:14 0.00815228
14 *29:19 *307:14 0
15 *29:19 *314:16 0.0106882
16 *29:19 *316:16 0
17 *29:19 *395:11 0.0690117
*RES
1 io_in[35] *29:11 1.395 
2 *29:11 *29:13 197.91 
3 *29:13 *29:15 4.5 
4 *29:15 *29:16 406.35 
5 *29:16 *29:18 4.5 
6 *29:18 *29:19 358.11 
7 *29:19 *419:io_in[35] 23.4 
*END

*D_NET *30 0.426421
*CONN
*P io_in[36] I
*I *419:io_in[36] I *D tiny_user_project
*CAP
1 io_in[36] 0.00179421
2 *419:io_in[36] 0.00268771
3 *30:12 0.0244921
4 *30:11 0.0218044
5 *30:9 0.0777373
6 *30:7 0.0795315
7 *419:io_in[36] *419:wbs_dat_i[0] 9.64519e-05
8 *30:12 *117:11 0.136468
9 *30:12 *178:19 0.07827
10 *30:12 *382:18 0.00353904
*RES
1 io_in[36] *30:7 13.185 
2 *30:7 *30:9 583.56 
3 *30:9 *30:11 4.5 
4 *30:11 *30:12 440.37 
5 *30:12 *419:io_in[36] 23.715 
*END

*D_NET *31 0.403142
*CONN
*P io_in[37] I
*I *419:io_in[37] I *D tiny_user_project
*CAP
1 io_in[37] 0.000323383
2 *419:io_in[37] 0.00250707
3 *31:16 0.0368798
4 *31:15 0.0343728
5 *31:13 0.0797206
6 *31:11 0.0800439
7 *419:io_in[37] *419:la_data_in[23] 0.00595187
8 *419:io_in[37] *308:11 1.98173e-05
9 *31:13 *234:15 0
10 *31:16 *94:15 0.000347961
11 *31:16 *123:15 0.140393
12 *31:16 *127:16 0.000347961
13 *31:16 *131:19 0.0215377
14 *31:16 *209:16 0.000347961
15 *31:16 *211:11 0.000347961
*RES
1 io_in[37] *31:11 3.015 
2 *31:11 *31:13 598.95 
3 *31:13 *31:15 4.5 
4 *31:15 *31:16 483.39 
5 *31:16 *419:io_in[37] 37.575 
*END

*D_NET *32 0.369528
*CONN
*P io_in[3] I
*I *419:io_in[3] I *D tiny_user_project
*CAP
1 io_in[3] 0.000414676
2 *419:io_in[3] 0.00100842
3 *32:11 0.0494246
4 *32:10 0.0484162
5 *32:8 0.00581402
6 *32:7 0.00622869
7 *419:io_in[3] *73:22 0
8 *419:io_in[3] *112:52 0.000736743
9 *32:8 *33:8 0.00157962
10 *32:8 *39:12 0.00419506
11 *32:8 *61:16 0.00142819
12 *32:8 *99:14 0.09962
13 *32:11 *38:10 0.000477544
14 *32:11 *76:13 0
15 *419:io_in[2] *419:io_in[3] 0.000221785
16 *23:8 *32:8 0.149962
*RES
1 io_in[3] *32:7 7.425 