*SPEF "ieee 1481-1999"
*DESIGN "user_project_wrapper"
*DATE "11:11:11 Fri 11 11, 1111"
*VENDOR "OpenRCX"
*PROGRAM "Parallel Extraction"
*VERSION "1.0"
*DESIGN_FLOW "NAME_SCOPE LOCAL" "PIN_CAP NONE"
*DIVIDER /
*DELIMITER :
*BUS_DELIMITER []
*T_UNIT 1 NS
*C_UNIT 1 PF
*R_UNIT 1 OHM
*L_UNIT 1 HENRY

*NAME_MAP
*1 io_in[0]
*2 io_in[10]
*3 io_in[11]
*4 io_in[12]
*5 io_in[13]
*6 io_in[14]
*7 io_in[15]
*8 io_in[16]
*9 io_in[17]
*10 io_in[18]
*11 io_in[19]
*12 io_in[1]
*13 io_in[20]
*14 io_in[21]
*15 io_in[22]
*16 io_in[23]
*17 io_in[24]
*18 io_in[25]
*19 io_in[26]
*20 io_in[27]
*21 io_in[28]
*22 io_in[29]
*23 io_in[2]
*24 io_in[30]
*25 io_in[31]
*26 io_in[32]
*27 io_in[33]
*28 io_in[34]
*29 io_in[35]
*30 io_in[36]
*31 io_in[37]
*32 io_in[3]
*33 io_in[4]
*34 io_in[5]
*35 io_in[6]
*36 io_in[7]
*37 io_in[8]
*38 io_in[9]
*39 io_oeb[0]
*40 io_oeb[10]
*41 io_oeb[11]
*42 io_oeb[12]
*43 io_oeb[13]
*44 io_oeb[14]
*45 io_oeb[15]
*46 io_oeb[16]
*47 io_oeb[17]
*48 io_oeb[18]
*49 io_oeb[19]
*50 io_oeb[1]
*51 io_oeb[20]
*52 io_oeb[21]
*53 io_oeb[22]
*54 io_oeb[23]
*55 io_oeb[24]
*56 io_oeb[25]
*57 io_oeb[26]
*58 io_oeb[27]
*59 io_oeb[28]
*60 io_oeb[29]
*61 io_oeb[2]
*62 io_oeb[30]
*63 io_oeb[31]
*64 io_oeb[32]
*65 io_oeb[33]
*66 io_oeb[34]
*67 io_oeb[35]
*68 io_oeb[36]
*69 io_oeb[37]
*70 io_oeb[3]
*71 io_oeb[4]
*72 io_oeb[5]
*73 io_oeb[6]
*74 io_oeb[7]
*75 io_oeb[8]
*76 io_oeb[9]
*77 io_out[0]
*78 io_out[10]
*79 io_out[11]
*80 io_out[12]
*81 io_out[13]
*82 io_out[14]
*83 io_out[15]
*84 io_out[16]
*85 io_out[17]
*86 io_out[18]
*87 io_out[19]
*88 io_out[1]
*89 io_out[20]
*90 io_out[21]
*91 io_out[22]
*92 io_out[23]
*93 io_out[24]
*94 io_out[25]
*95 io_out[26]
*96 io_out[27]
*97 io_out[28]
*98 io_out[29]
*99 io_out[2]
*100 io_out[30]
*101 io_out[31]
*102 io_out[32]
*103 io_out[33]
*104 io_out[34]
*105 io_out[35]
*106 io_out[36]
*107 io_out[37]
*108 io_out[3]
*109 io_out[4]
*110 io_out[5]
*111 io_out[6]
*112 io_out[7]
*113 io_out[8]
*114 io_out[9]
*115 la_data_in[0]
*116 la_data_in[10]
*117 la_data_in[11]
*118 la_data_in[12]
*119 la_data_in[13]
*120 la_data_in[14]
*121 la_data_in[15]
*122 la_data_in[16]
*123 la_data_in[17]
*124 la_data_in[18]
*125 la_data_in[19]
*126 la_data_in[1]
*127 la_data_in[20]
*128 la_data_in[21]
*129 la_data_in[22]
*130 la_data_in[23]
*131 la_data_in[24]
*132 la_data_in[25]
*133 la_data_in[26]
*134 la_data_in[27]
*135 la_data_in[28]
*136 la_data_in[29]
*137 la_data_in[2]
*138 la_data_in[30]
*139 la_data_in[31]
*140 la_data_in[32]
*141 la_data_in[33]
*142 la_data_in[34]
*143 la_data_in[35]
*144 la_data_in[36]
*145 la_data_in[37]
*146 la_data_in[38]
*147 la_data_in[39]
*148 la_data_in[3]
*149 la_data_in[40]
*150 la_data_in[41]
*151 la_data_in[42]
*152 la_data_in[43]
*153 la_data_in[44]
*154 la_data_in[45]
*155 la_data_in[46]
*156 la_data_in[47]
*157 la_data_in[48]
*158 la_data_in[49]
*159 la_data_in[4]
*160 la_data_in[50]
*161 la_data_in[51]
*162 la_data_in[52]
*163 la_data_in[53]
*164 la_data_in[54]
*165 la_data_in[55]
*166 la_data_in[56]
*167 la_data_in[57]
*168 la_data_in[58]
*169 la_data_in[59]
*170 la_data_in[5]
*171 la_data_in[60]
*172 la_data_in[61]
*173 la_data_in[62]
*174 la_data_in[63]
*175 la_data_in[6]
*176 la_data_in[7]
*177 la_data_in[8]
*178 la_data_in[9]
*179 la_data_out[0]
*180 la_data_out[10]
*181 la_data_out[11]
*182 la_data_out[12]
*183 la_data_out[13]
*184 la_data_out[14]
*185 la_data_out[15]
*186 la_data_out[16]
*187 la_data_out[17]
*188 la_data_out[18]
*189 la_data_out[19]
*190 la_data_out[1]
*191 la_data_out[20]
*192 la_data_out[21]
*193 la_data_out[22]
*194 la_data_out[23]
*195 la_data_out[24]
*196 la_data_out[25]
*197 la_data_out[26]
*198 la_data_out[27]
*199 la_data_out[28]
*200 la_data_out[29]
*201 la_data_out[2]
*202 la_data_out[30]
*203 la_data_out[31]
*204 la_data_out[32]
*205 la_data_out[33]
*206 la_data_out[34]
*207 la_data_out[35]
*208 la_data_out[36]
*209 la_data_out[37]
*210 la_data_out[38]
*211 la_data_out[39]
*212 la_data_out[3]
*213 la_data_out[40]
*214 la_data_out[41]
*215 la_data_out[42]
*216 la_data_out[43]
*217 la_data_out[44]
*218 la_data_out[45]
*219 la_data_out[46]
*220 la_data_out[47]
*221 la_data_out[48]
*222 la_data_out[49]
*223 la_data_out[4]
*224 la_data_out[50]
*225 la_data_out[51]
*226 la_data_out[52]
*227 la_data_out[53]
*228 la_data_out[54]
*229 la_data_out[55]
*230 la_data_out[56]
*231 la_data_out[57]
*232 la_data_out[58]
*233 la_data_out[59]
*234 la_data_out[5]
*235 la_data_out[60]
*236 la_data_out[61]
*237 la_data_out[62]
*238 la_data_out[63]
*239 la_data_out[6]
*240 la_data_out[7]
*241 la_data_out[8]
*242 la_data_out[9]
*243 la_oenb[0]
*244 la_oenb[10]
*245 la_oenb[11]
*246 la_oenb[12]
*247 la_oenb[13]
*248 la_oenb[14]
*249 la_oenb[15]
*250 la_oenb[16]
*251 la_oenb[17]
*252 la_oenb[18]
*253 la_oenb[19]
*254 la_oenb[1]
*255 la_oenb[20]
*256 la_oenb[21]
*257 la_oenb[22]
*258 la_oenb[23]
*259 la_oenb[24]
*260 la_oenb[25]
*261 la_oenb[26]
*262 la_oenb[27]
*263 la_oenb[28]
*264 la_oenb[29]
*265 la_oenb[2]
*266 la_oenb[30]
*267 la_oenb[31]
*268 la_oenb[32]
*269 la_oenb[33]
*270 la_oenb[34]
*271 la_oenb[35]
*272 la_oenb[36]
*273 la_oenb[37]
*274 la_oenb[38]
*275 la_oenb[39]
*276 la_oenb[3]
*277 la_oenb[40]
*278 la_oenb[41]
*279 la_oenb[42]
*280 la_oenb[43]
*281 la_oenb[44]
*282 la_oenb[45]
*283 la_oenb[46]
*284 la_oenb[47]
*285 la_oenb[48]
*286 la_oenb[49]
*287 la_oenb[4]
*288 la_oenb[50]
*289 la_oenb[51]
*290 la_oenb[52]
*291 la_oenb[53]
*292 la_oenb[54]
*293 la_oenb[55]
*294 la_oenb[56]
*295 la_oenb[57]
*296 la_oenb[58]
*297 la_oenb[59]
*298 la_oenb[5]
*299 la_oenb[60]
*300 la_oenb[61]
*301 la_oenb[62]
*302 la_oenb[63]
*303 la_oenb[6]
*304 la_oenb[7]
*305 la_oenb[8]
*306 la_oenb[9]
*307 user_clock2
*308 user_irq[0]
*309 user_irq[1]
*310 user_irq[2]
*313 wb_clk_i
*314 wb_rst_i
*315 wbs_ack_o
*316 wbs_adr_i[0]
*317 wbs_adr_i[10]
*318 wbs_adr_i[11]
*319 wbs_adr_i[12]
*320 wbs_adr_i[13]
*321 wbs_adr_i[14]
*322 wbs_adr_i[15]
*323 wbs_adr_i[16]
*324 wbs_adr_i[17]
*325 wbs_adr_i[18]
*326 wbs_adr_i[19]
*327 wbs_adr_i[1]
*328 wbs_adr_i[20]
*329 wbs_adr_i[21]
*330 wbs_adr_i[22]
*331 wbs_adr_i[23]
*332 wbs_adr_i[24]
*333 wbs_adr_i[25]
*334 wbs_adr_i[26]
*335 wbs_adr_i[27]
*336 wbs_adr_i[28]
*337 wbs_adr_i[29]
*338 wbs_adr_i[2]
*339 wbs_adr_i[30]
*340 wbs_adr_i[31]
*341 wbs_adr_i[3]
*342 wbs_adr_i[4]
*343 wbs_adr_i[5]
*344 wbs_adr_i[6]
*345 wbs_adr_i[7]
*346 wbs_adr_i[8]
*347 wbs_adr_i[9]
*348 wbs_cyc_i
*349 wbs_dat_i[0]
*350 wbs_dat_i[10]
*351 wbs_dat_i[11]
*352 wbs_dat_i[12]
*353 wbs_dat_i[13]
*354 wbs_dat_i[14]
*355 wbs_dat_i[15]
*356 wbs_dat_i[16]
*357 wbs_dat_i[17]
*358 wbs_dat_i[18]
*359 wbs_dat_i[19]
*360 wbs_dat_i[1]
*361 wbs_dat_i[20]
*362 wbs_dat_i[21]
*363 wbs_dat_i[22]
*364 wbs_dat_i[23]
*365 wbs_dat_i[24]
*366 wbs_dat_i[25]
*367 wbs_dat_i[26]
*368 wbs_dat_i[27]
*369 wbs_dat_i[28]
*370 wbs_dat_i[29]
*371 wbs_dat_i[2]
*372 wbs_dat_i[30]
*373 wbs_dat_i[31]
*374 wbs_dat_i[3]
*375 wbs_dat_i[4]
*376 wbs_dat_i[5]
*377 wbs_dat_i[6]
*378 wbs_dat_i[7]
*379 wbs_dat_i[8]
*380 wbs_dat_i[9]
*381 wbs_dat_o[0]
*382 wbs_dat_o[10]
*383 wbs_dat_o[11]
*384 wbs_dat_o[12]
*385 wbs_dat_o[13]
*386 wbs_dat_o[14]
*387 wbs_dat_o[15]
*388 wbs_dat_o[16]
*389 wbs_dat_o[17]
*390 wbs_dat_o[18]
*391 wbs_dat_o[19]
*392 wbs_dat_o[1]
*393 wbs_dat_o[20]
*394 wbs_dat_o[21]
*395 wbs_dat_o[22]
*396 wbs_dat_o[23]
*397 wbs_dat_o[24]
*398 wbs_dat_o[25]
*399 wbs_dat_o[26]
*400 wbs_dat_o[27]
*401 wbs_dat_o[28]
*402 wbs_dat_o[29]
*403 wbs_dat_o[2]
*404 wbs_dat_o[30]
*405 wbs_dat_o[31]
*406 wbs_dat_o[3]
*407 wbs_dat_o[4]
*408 wbs_dat_o[5]
*409 wbs_dat_o[6]
*410 wbs_dat_o[7]
*411 wbs_dat_o[8]
*412 wbs_dat_o[9]
*413 wbs_sel_i[0]
*414 wbs_sel_i[1]
*415 wbs_sel_i[2]
*416 wbs_sel_i[3]
*417 wbs_stb_i
*418 wbs_we_i
*419 mprj

*PORTS
io_in[0] I
io_in[10] I
io_in[11] I
io_in[12] I
io_in[13] I
io_in[14] I
io_in[15] I
io_in[16] I
io_in[17] I
io_in[18] I
io_in[19] I
io_in[1] I
io_in[20] I
io_in[21] I
io_in[22] I
io_in[23] I
io_in[24] I
io_in[25] I
io_in[26] I
io_in[27] I
io_in[28] I
io_in[29] I
io_in[2] I
io_in[30] I
io_in[31] I
io_in[32] I
io_in[33] I
io_in[34] I
io_in[35] I
io_in[36] I
io_in[37] I
io_in[3] I
io_in[4] I
io_in[5] I
io_in[6] I
io_in[7] I
io_in[8] I
io_in[9] I
io_oeb[0] O
io_oeb[10] O
io_oeb[11] O
io_oeb[12] O
io_oeb[13] O
io_oeb[14] O
io_oeb[15] O
io_oeb[16] O
io_oeb[17] O
io_oeb[18] O
io_oeb[19] O
io_oeb[1] O
io_oeb[20] O
io_oeb[21] O
io_oeb[22] O
io_oeb[23] O
io_oeb[24] O
io_oeb[25] O
io_oeb[26] O
io_oeb[27] O
io_oeb[28] O
io_oeb[29] O
io_oeb[2] O
io_oeb[30] O
io_oeb[31] O
io_oeb[32] O
io_oeb[33] O
io_oeb[34] O
io_oeb[35] O
io_oeb[36] O
io_oeb[37] O
io_oeb[3] O
io_oeb[4] O
io_oeb[5] O
io_oeb[6] O
io_oeb[7] O
io_oeb[8] O
io_oeb[9] O
io_out[0] O
io_out[10] O
io_out[11] O
io_out[12] O
io_out[13] O
io_out[14] O
io_out[15] O
io_out[16] O
io_out[17] O
io_out[18] O
io_out[19] O
io_out[1] O
io_out[20] O
io_out[21] O
io_out[22] O
io_out[23] O
io_out[24] O
io_out[25] O
io_out[26] O
io_out[27] O
io_out[28] O
io_out[29] O
io_out[2] O
io_out[30] O
io_out[31] O
io_out[32] O
io_out[33] O
io_out[34] O
io_out[35] O
io_out[36] O
io_out[37] O
io_out[3] O
io_out[4] O
io_out[5] O
io_out[6] O
io_out[7] O
io_out[8] O
io_out[9] O
la_data_in[0] I
la_data_in[10] I
la_data_in[11] I
la_data_in[12] I
la_data_in[13] I
la_data_in[14] I
la_data_in[15] I
la_data_in[16] I
la_data_in[17] I
la_data_in[18] I
la_data_in[19] I
la_data_in[1] I
la_data_in[20] I
la_data_in[21] I
la_data_in[22] I
la_data_in[23] I
la_data_in[24] I
la_data_in[25] I
la_data_in[26] I
la_data_in[27] I
la_data_in[28] I
la_data_in[29] I
la_data_in[2] I
la_data_in[30] I
la_data_in[31] I
la_data_in[32] I
la_data_in[33] I
la_data_in[34] I
la_data_in[35] I
la_data_in[36] I
la_data_in[37] I
la_data_in[38] I
la_data_in[39] I
la_data_in[3] I
la_data_in[40] I
la_data_in[41] I
la_data_in[42] I
la_data_in[43] I
la_data_in[44] I
la_data_in[45] I
la_data_in[46] I
la_data_in[47] I
la_data_in[48] I
la_data_in[49] I
la_data_in[4] I
la_data_in[50] I
la_data_in[51] I
la_data_in[52] I
la_data_in[53] I
la_data_in[54] I
la_data_in[55] I
la_data_in[56] I
la_data_in[57] I
la_data_in[58] I
la_data_in[59] I
la_data_in[5] I
la_data_in[60] I
la_data_in[61] I
la_data_in[62] I
la_data_in[63] I
la_data_in[6] I
la_data_in[7] I
la_data_in[8] I
la_data_in[9] I
la_data_out[0] O
la_data_out[10] O
la_data_out[11] O
la_data_out[12] O
la_data_out[13] O
la_data_out[14] O
la_data_out[15] O
la_data_out[16] O
la_data_out[17] O
la_data_out[18] O
la_data_out[19] O
la_data_out[1] O
la_data_out[20] O
la_data_out[21] O
la_data_out[22] O
la_data_out[23] O
la_data_out[24] O
la_data_out[25] O
la_data_out[26] O
la_data_out[27] O
la_data_out[28] O
la_data_out[29] O
la_data_out[2] O
la_data_out[30] O
la_data_out[31] O
la_data_out[32] O
la_data_out[33] O
la_data_out[34] O
la_data_out[35] O
la_data_out[36] O
la_data_out[37] O
la_data_out[38] O
la_data_out[39] O
la_data_out[3] O
la_data_out[40] O
la_data_out[41] O
la_data_out[42] O
la_data_out[43] O
la_data_out[44] O
la_data_out[45] O
la_data_out[46] O
la_data_out[47] O
la_data_out[48] O
la_data_out[49] O
la_data_out[4] O
la_data_out[50] O
la_data_out[51] O
la_data_out[52] O
la_data_out[53] O
la_data_out[54] O
la_data_out[55] O
la_data_out[56] O
la_data_out[57] O
la_data_out[58] O
la_data_out[59] O
la_data_out[5] O
la_data_out[60] O
la_data_out[61] O
la_data_out[62] O
la_data_out[63] O
la_data_out[6] O
la_data_out[7] O
la_data_out[8] O
la_data_out[9] O
la_oenb[0] I
la_oenb[10] I
la_oenb[11] I
la_oenb[12] I
la_oenb[13] I
la_oenb[14] I
la_oenb[15] I
la_oenb[16] I
la_oenb[17] I
la_oenb[18] I
la_oenb[19] I
la_oenb[1] I
la_oenb[20] I
la_oenb[21] I
la_oenb[22] I
la_oenb[23] I
la_oenb[24] I
la_oenb[25] I
la_oenb[26] I
la_oenb[27] I
la_oenb[28] I
la_oenb[29] I
la_oenb[2] I
la_oenb[30] I
la_oenb[31] I
la_oenb[32] I
la_oenb[33] I
la_oenb[34] I
la_oenb[35] I
la_oenb[36] I
la_oenb[37] I
la_oenb[38] I
la_oenb[39] I
la_oenb[3] I
la_oenb[40] I
la_oenb[41] I
la_oenb[42] I
la_oenb[43] I
la_oenb[44] I
la_oenb[45] I
la_oenb[46] I
la_oenb[47] I
la_oenb[48] I
la_oenb[49] I
la_oenb[4] I
la_oenb[50] I
la_oenb[51] I
la_oenb[52] I
la_oenb[53] I
la_oenb[54] I
la_oenb[55] I
la_oenb[56] I
la_oenb[57] I
la_oenb[58] I
la_oenb[59] I
la_oenb[5] I
la_oenb[60] I
la_oenb[61] I
la_oenb[62] I
la_oenb[63] I
la_oenb[6] I
la_oenb[7] I
la_oenb[8] I
la_oenb[9] I
user_clock2 I
user_irq[0] O
user_irq[1] O
user_irq[2] O
wb_clk_i I
wb_rst_i I
wbs_ack_o O
wbs_adr_i[0] I
wbs_adr_i[10] I
wbs_adr_i[11] I
wbs_adr_i[12] I
wbs_adr_i[13] I
wbs_adr_i[14] I
wbs_adr_i[15] I
wbs_adr_i[16] I
wbs_adr_i[17] I
wbs_adr_i[18] I
wbs_adr_i[19] I
wbs_adr_i[1] I
wbs_adr_i[20] I
wbs_adr_i[21] I
wbs_adr_i[22] I
wbs_adr_i[23] I
wbs_adr_i[24] I
wbs_adr_i[25] I
wbs_adr_i[26] I
wbs_adr_i[27] I
wbs_adr_i[28] I
wbs_adr_i[29] I
wbs_adr_i[2] I
wbs_adr_i[30] I
wbs_adr_i[31] I
wbs_adr_i[3] I
wbs_adr_i[4] I
wbs_adr_i[5] I
wbs_adr_i[6] I
wbs_adr_i[7] I
wbs_adr_i[8] I
wbs_adr_i[9] I
wbs_cyc_i I
wbs_dat_i[0] I
wbs_dat_i[10] I
wbs_dat_i[11] I
wbs_dat_i[12] I
wbs_dat_i[13] I
wbs_dat_i[14] I
wbs_dat_i[15] I
wbs_dat_i[16] I
wbs_dat_i[17] I
wbs_dat_i[18] I
wbs_dat_i[19] I
wbs_dat_i[1] I
wbs_dat_i[20] I
wbs_dat_i[21] I
wbs_dat_i[22] I
wbs_dat_i[23] I
wbs_dat_i[24] I
wbs_dat_i[25] I
wbs_dat_i[26] I
wbs_dat_i[27] I
wbs_dat_i[28] I
wbs_dat_i[29] I
wbs_dat_i[2] I
wbs_dat_i[30] I
wbs_dat_i[31] I
wbs_dat_i[3] I
wbs_dat_i[4] I
wbs_dat_i[5] I
wbs_dat_i[6] I
wbs_dat_i[7] I
wbs_dat_i[8] I
wbs_dat_i[9] I
wbs_dat_o[0] O
wbs_dat_o[10] O
wbs_dat_o[11] O
wbs_dat_o[12] O
wbs_dat_o[13] O
wbs_dat_o[14] O
wbs_dat_o[15] O
wbs_dat_o[16] O
wbs_dat_o[17] O
wbs_dat_o[18] O
wbs_dat_o[19] O
wbs_dat_o[1] O
wbs_dat_o[20] O
wbs_dat_o[21] O
wbs_dat_o[22] O
wbs_dat_o[23] O
wbs_dat_o[24] O
wbs_dat_o[25] O
wbs_dat_o[26] O
wbs_dat_o[27] O
wbs_dat_o[28] O
wbs_dat_o[29] O
wbs_dat_o[2] O
wbs_dat_o[30] O
wbs_dat_o[31] O
wbs_dat_o[3] O
wbs_dat_o[4] O
wbs_dat_o[5] O
wbs_dat_o[6] O
wbs_dat_o[7] O
wbs_dat_o[8] O
wbs_dat_o[9] O
wbs_sel_i[0] I
wbs_sel_i[1] I
wbs_sel_i[2] I
wbs_sel_i[3] I
wbs_stb_i I
wbs_we_i I

*D_NET *1 0.475609
*CONN
*P io_in[0] I
*I *419:io_in[0] I *D tiny_user_project
*CAP
1 io_in[0] 0.00265146
2 *419:io_in[0] 0.000244979
3 *1:14 0.00899
4 *1:13 0.00874502
5 *1:11 0.0644426
6 *1:10 0.0670941
7 *1:11 *77:21 0
8 *1:11 *322:16 0.142058
9 *1:14 *90:11 0.00448043
10 *1:14 *138:11 0.0343704
11 *1:14 *241:11 0.0380734
12 *1:14 *395:16 0.100227
13 *1:14 *399:30 0.00423186
*RES
1 io_in[0] *1:10 35.595 
2 *1:10 *1:11 765.81 
3 *1:11 *1:13 4.5 
4 *1:13 *1:14 298.17 
5 *1:14 *419:io_in[0] 15.66 
*END

*D_NET *2 0.32449
*CONN
*P io_in[10] I
*I *419:io_in[10] I *D tiny_user_project
*CAP
1 io_in[10] 0.0713445
2 *419:io_in[10] 0.000717207
3 *2:8 0.0246714
4 *2:7 0.0239542
5 *2:5 0.0713445
6 *419:io_in[10] *220:10 0.000255074
7 *2:8 *37:16 0.131405
8 *2:8 *220:11 0.000797884
*RES
1 io_in[10] *2:5 777.645 
2 *2:5 *2:7 4.5 
3 *2:7 *2:8 322.29 
4 *2:8 *419:io_in[10] 21.06 
*END

*D_NET *3 0.378341
*CONN
*P io_in[11] I
*I *419:io_in[11] I *D tiny_user_project
*CAP
1 io_in[11] 0.000280649
2 *419:io_in[11] 0.00122065
3 *3:16 0.0349132
4 *3:15 0.0336926
5 *3:13 0.0720631
6 *3:11 0.0723437
7 *419:io_in[11] *419:io_in[14] 0.00283822
8 *3:16 *82:13 0.142576
9 *3:16 *332:19 0.0184127
*RES
1 io_in[11] *3:11 2.655 
2 *3:11 *3:13 785.61 
3 *3:13 *3:15 4.5 
4 *3:15 *3:16 458.91 
5 *3:16 *419:io_in[11] 30.15 
*END

*D_NET *4 0.304057
*CONN
*P io_in[12] I
*I *419:io_in[12] I *D tiny_user_project
*CAP
1 io_in[12] 0.000215438
2 *419:io_in[12] 0.00115724
3 *4:16 0.0436382
4 *4:15 0.042481
5 *4:13 0.0722735
6 *4:11 0.0724889
7 *419:io_in[12] *419:la_oenb[28] 0.00418727
8 *4:16 *135:21 0.00310971
9 *4:16 *247:11 0
10 *4:16 *368:11 0.0645059
*RES
1 io_in[12] *4:11 2.115 
2 *4:11 *4:13 788.31 
3 *4:13 *4:15 4.5 
4 *4:15 *4:16 469.71 
5 *4:16 *419:io_in[12] 31.68 
*END

*D_NET *5 0.376536
*CONN
*P io_in[13] I
*I *419:io_in[13] I *D tiny_user_project
*CAP
1 io_in[13] 0.000145659
2 *419:io_in[13] 0.00251984
3 *5:16 0.0510741
4 *5:15 0.0485542
5 *5:13 0.0724793
6 *5:11 0.072625
7 *419:io_in[13] *419:la_data_in[32] 0.000187805
8 *5:16 *112:13 0.121585
9 *5:16 *279:11 0
10 *5:16 *310:13 0.00736509
*RES
1 io_in[13] *5:11 1.575 
2 *5:11 *5:13 791.01 
3 *5:13 *5:15 4.5 
4 *5:15 *5:16 575.19 
5 *5:16 *419:io_in[13] 35.19 
*END

*D_NET *6 0.330401
*CONN
*P io_in[14] I
*I *419:io_in[14] I *D tiny_user_project
*CAP
1 io_in[14] 0.00399984
2 *419:io_in[14] 0.00102766
3 *6:12 0.0604464
4 *6:11 0.0594188
5 *6:9 0.0677678
6 *6:7 0.0717676
7 *6:12 *225:15 0.0278032
8 *6:12 *361:19 0.0162646
9 *6:12 *394:11 0.0190674
10 *419:io_in[11] *419:io_in[14] 0.00283822
*RES
1 io_in[14] *6:7 43.425 
2 *6:7 *6:9 739.98 
3 *6:9 *6:11 4.5 
4 *6:11 *6:12 652.95 
5 *6:12 *419:io_in[14] 28.17 
*END

*D_NET *7 0.23625
*CONN
*P io_in[15] I
*I *419:io_in[15] I *D tiny_user_project
*CAP
1 io_in[15] 0.00432456
2 *419:io_in[15] 0.000446324
3 *7:15 0.0262845
4 *7:14 0.0258382
5 *7:12 0.0598001
6 *7:11 0.0598001
7 *7:9 0.0258275
8 *7:7 0.0301521
9 *419:io_in[15] *132:8 1.39882e-05
10 *419:io_in[15] *192:18 0.00012434
11 *419:io_in[15] *207:12 0.000779279
12 *419:io_in[15] *316:16 0
13 *419:io_in[15] *387:17 0.00279764
14 *7:15 *68:12 0
15 *7:15 *124:33 6.13757e-05
*RES
1 io_in[15] *7:7 43.245 
2 *7:7 *7:9 257.94 
3 *7:9 *7:11 4.5 
4 *7:11 *7:12 652.23 
5 *7:12 *7:14 4.5 
6 *7:14 *7:15 255.15 
7 *7:15 *419:io_in[15] 25.65 
*END

*D_NET *8 0.231808
*CONN
*P io_in[16] I
*I *419:io_in[16] I *D tiny_user_project
*CAP
1 io_in[16] 0.000164983
2 *419:io_in[16] 0.000924169
3 *8:19 0.010997
4 *8:18 0.0100728
5 *8:16 0.0409253
6 *8:15 0.0409253
7 *8:13 0.0604827
8 *8:11 0.0606477
9 *8:16 *419:wbs_dat_i[23] 0.000798882
10 *8:16 *405:7 0.000817533
11 *8:19 *31:16 0.00305651
12 *8:19 *91:8 0
13 *8:19 *94:8 0
14 *8:19 *234:8 0
15 *8:19 *365:11 0.00199548
*RES
1 io_in[16] *8:11 1.935 
2 *8:11 *8:13 603.27 
3 *8:13 *8:15 4.5 
4 *8:15 *8:16 444.33 
5 *8:16 *8:18 4.5 
6 *8:18 *8:19 119.97 
7 *8:19 *419:io_in[16] 12.105 
*END

*D_NET *9 0.179612
*CONN
*P io_in[17] I
*I *419:io_in[17] I *D tiny_user_project
*CAP
1 io_in[17] 0.000291323
2 *419:io_in[17] 0.0049716
3 *9:21 0.0049716
4 *9:19 0.00495163
5 *9:18 0.00495163
6 *9:16 0.0266347
7 *9:15 0.0266347
8 *9:13 0.0523298
9 *9:11 0.0526211
10 *419:io_in[17] *419:la_data_in[10] 0.000722724
11 *9:19 *265:15 0.0005309
*RES
1 io_in[17] *9:11 3.015 
2 *9:11 *9:13 522.27 
3 *9:13 *9:15 4.5 
4 *9:15 *9:16 290.43 
5 *9:16 *9:18 4.5 
6 *9:18 *9:19 48.69 
7 *9:19 *9:21 4.5 
8 *9:21 *419:io_in[17] 53.505 
*END

*D_NET *10 0.17195
*CONN
*P io_in[18] I
*I *419:io_in[18] I *D tiny_user_project
*CAP
1 io_in[18] 0.00121865
2 *419:io_in[18] 0.000554413
3 *10:11 0.0553362
4 *10:10 0.0547818
5 *10:8 0.0277463
6 *10:7 0.028965
7 *419:io_in[18] *124:16 0.000152316
8 *419:io_in[18] *192:18 0.00012434
9 *419:io_in[18] *227:32 2.48679e-05
10 *419:io_in[18] *387:16 0.00304632
11 *10:11 *97:14 0
12 *10:11 *402:14 0
*RES
1 io_in[18] *10:7 16.425 
2 *10:7 *10:8 301.95 
3 *10:8 *10:10 4.5 
4 *10:10 *10:11 544.05 
5 *10:11 *419:io_in[18] 25.92 
*END

*D_NET *11 0.182155
*CONN
*P io_in[19] I
*I *419:io_in[19] I *D tiny_user_project
*CAP
1 io_in[19] 0.000224243
2 *419:io_in[19] 0.00176847
3 *11:19 0.0241092
4 *11:18 0.0223408
5 *11:16 0.01062
6 *11:15 0.01062
7 *11:13 0.0517704
8 *11:11 0.0519947
9 *11:19 *53:8 0
10 *11:19 *137:11 0
11 *11:19 *337:19 0
12 *11:19 *355:19 0.00870692
*RES
1 io_in[19] *11:11 2.475 
2 *11:11 *11:13 516.87 
3 *11:13 *11:15 4.5 
4 *11:15 *11:16 114.93 
5 *11:16 *11:18 4.5 
6 *11:18 *11:19 251.73 
7 *11:19 *419:io_in[19] 20.205 
*END

*D_NET *12 0.518484
*CONN
*P io_in[1] I
*I *419:io_in[1] I *D tiny_user_project
*CAP
1 io_in[1] 0.000280649
2 *419:io_in[1] 0.00044068
3 *12:19 0.0139263
4 *12:18 0.0134856
5 *12:16 0.0341121
6 *12:15 0.0341121
7 *12:13 0.0249276
8 *12:11 0.0252082
9 *419:io_in[1] *419:la_oenb[37] 0.00104793
10 *419:io_in[1] *419:wb_rst_i 0.00104339
11 *419:io_in[1] *192:18 0.00012434
12 *419:io_in[1] *227:16 2.48679e-05
13 *419:io_in[1] *332:29 0
14 *12:13 *294:16 0
15 *12:19 *419:la_oenb[9] 0.000226644
16 *12:19 *64:15 0.107367
17 *12:19 *126:16 0.000721159
18 *12:19 *133:24 0
19 *12:19 *163:16 0.228474
20 *12:19 *197:18 0.00221738
21 *12:19 *235:15 0.0243954
22 *12:19 *257:18 0.00550331
23 *12:19 *261:29 0.000236245
24 *12:19 *335:52 0
25 *12:19 *342:25 0.000609264
26 *12:19 *378:18 0
27 *12:19 *399:13 0
*RES
1 io_in[1] *12:11 2.655 
2 *12:11 *12:13 263.07 
3 *12:13 *12:15 4.5 
4 *12:15 *12:16 337.59 
5 *12:16 *12:18 4.5 
6 *12:18 *12:19 495.81 
7 *12:19 *419:io_in[1] 28.8 
*END

*D_NET *13 0.12647
*CONN
*P io_in[20] I
*I *419:io_in[20] I *D tiny_user_project
*CAP
1 io_in[20] 0.00433039
2 *419:io_in[20] 0.000174807
3 *13:17 0.00428297
4 *13:12 0.0104087
5 *13:11 0.00630058
6 *13:9 0.0477187
7 *13:7 0.0520491
8 *419:io_in[20] *419:wbs_dat_i[7] 4.69606e-05
9 *419:io_in[20] *192:18 0.000870377
10 *419:io_in[20] *227:32 0.000174075
11 *13:17 *419:wbs_dat_i[7] 0.000113545
*RES
1 io_in[20] *13:7 43.245 
2 *13:7 *13:9 476.64 
3 *13:9 *13:11 4.5 
4 *13:11 *13:12 67.59 
5 *13:12 *13:17 47.43 
6 *13:17 *419:io_in[20] 16.11 
*END

*D_NET *14 0.446621
*CONN
*P io_in[21] I
*I *419:io_in[21] I *D tiny_user_project
*CAP
1 io_in[21] 0.000708774
2 *419:io_in[21] 0.000244462
3 *14:14 0.00104792
4 *14:13 0.000803454
5 *14:11 0.0563191
6 *14:10 0.0563191
7 *14:8 0.00416413
8 *14:7 0.00487291
9 *419:io_in[21] *144:30 3.37512e-05
10 *14:8 *91:11 0.056761
11 *14:11 *419:wbs_dat_i[0] 0.00546244
12 *14:11 *15:19 0.0789906
13 *14:11 *257:17 1.22751e-05
14 *14:11 *402:24 0.00441522
15 *14:11 *402:26 0.0179818
16 *14:11 *402:30 0.024673
17 *14:11 *403:8 0.0487937
18 *14:11 *409:8 0.0216043
19 *14:14 *17:17 0
20 *14:14 *85:33 0.0335095
21 *14:14 *113:13 0.0299037
*RES
1 io_in[21] *14:7 10.845 
2 *14:7 *14:8 82.17 
3 *14:8 *14:10 4.5 
4 *14:10 *14:11 772.11 
5 *14:11 *14:13 4.5 
6 *14:13 *14:14 48.51 
7 *14:14 *419:io_in[21] 15.6561 
*END

*D_NET *15 0.219775
*CONN
*P io_in[22] I
*I *419:io_in[22] I *D tiny_user_project
*CAP
1 io_in[22] 0.000290594
2 *419:io_in[22] 6.19565e-05
3 *15:19 0.00669369
4 *15:18 0.00663174
5 *15:16 0.0176077
6 *15:15 0.0176077
7 *15:13 0.0444514
8 *15:11 0.044742
9 *419:io_in[22] *252:22 0.000683868
10 *419:io_in[22] *349:34 0.000683868
11 *419:io_in[22] *402:24 0
12 *15:19 *257:17 0.00132981
13 *14:11 *15:19 0.0789906
*RES
1 io_in[22] *15:11 3.015 
2 *15:11 *15:13 443.97 
3 *15:13 *15:15 4.5 
4 *15:15 *15:16 191.97 
5 *15:16 *15:18 4.5 
6 *15:18 *15:19 115.83 
7 *15:19 *419:io_in[22] 10.395 
*END

*D_NET *16 0.18387
*CONN
*P io_in[23] I
*I *419:io_in[23] I *D tiny_user_project
*CAP
1 io_in[23] 0.000104982
2 *419:io_in[23] 0.00116167
3 *16:19 0.0072634
4 *16:18 0.00610173
5 *16:16 0.0285967
6 *16:15 0.0285967
7 *16:13 0.0516839
8 *16:11 0.0517888
9 *16:19 *30:16 0.0022709
10 *16:19 *179:18 0.00630125
*RES
1 io_in[23] *16:11 1.395 
2 *16:11 *16:13 516.87 
3 *16:13 *16:15 4.5 
4 *16:15 *16:16 307.89 
5 *16:16 *16:18 4.5 
6 *16:18 *16:19 69.21 
7 *16:19 *419:io_in[23] 16.245 
*END

*D_NET *17 0.334428
*CONN
*P io_in[24] I
*I *419:io_in[24] I *D tiny_user_project
*CAP
1 io_in[24] 0.000611329
2 *419:io_in[24] 0.000437302
3 *17:17 0.027034
4 *17:16 0.0265967
5 *17:14 0.0127621
6 *17:13 0.0132822
7 *17:8 0.0645799
8 *17:7 0.0646711
9 *17:13 io_out[33] 0.000310849
10 *17:17 *71:22 0.120281
11 *17:17 *83:22 0
12 *17:17 *85:19 0
13 *17:17 *95:20 0
14 *17:17 *95:27 0
15 *17:17 *96:15 0
16 *17:17 *98:13 0
17 *17:17 *104:15 0
18 *17:17 *104:32 0
19 *17:17 *113:13 0
20 *17:17 *181:10 0
21 *17:17 *387:23 0.00183224
22 *17:17 *388:18 0.00163171
23 *17:17 *389:16 0.00039773
24 *17:17 *396:16 0
25 *14:14 *17:17 0
*RES
1 io_in[24] *17:7 10.665 
2 *17:7 *17:8 639.81 
3 *17:8 *17:13 14.49 
4 *17:13 *17:14 127.35 
5 *17:14 *17:16 4.5 
6 *17:16 *17:17 350.37 
7 *17:17 *419:io_in[24] 17.4561 
*END

*D_NET *18 0.230187
*CONN
*P io_in[25] I
*I *419:io_in[25] I *D tiny_user_project
*CAP
1 io_in[25] 0.000237175
2 *419:io_in[25] 0.000773456
3 *18:19 0.00825258
4 *18:18 0.00747913
5 *18:16 0.0701708
6 *18:15 0.0701708
7 *18:13 0.0100594
8 *18:11 0.0102966
9 *419:io_in[25] *419:la_oenb[16] 0
10 *419:io_in[25] *47:22 2.76191e-05
11 *419:io_in[25] *250:19 0
12 *18:19 *70:14 0.0216973
13 *18:19 *324:8 0.00186509
14 *18:19 *332:16 0.0291572
15 *18:19 *394:14 0
*RES
1 io_in[25] *18:11 2.295 
2 *18:11 *18:13 108.81 
3 *18:13 *18:15 4.5 
4 *18:15 *18:16 699.75 
5 *18:16 *18:18 4.5 
6 *18:18 *18:19 110.61 
7 *18:19 *419:io_in[25] 20.3361 
*END

*D_NET *19 0.129941
*CONN
*P io_in[26] I
*I *419:io_in[26] I *D tiny_user_project
*CAP
1 io_in[26] 0.00010158
2 *419:io_in[26] 0.000231217
3 *19:19 0.00649852
4 *19:18 0.0062673
5 *19:16 0.0456702
6 *19:15 0.0456702
7 *19:13 0.0125555
8 *19:11 0.012657
9 *419:io_in[26] *419:wbs_stb_i 0.000187805
10 *19:16 *351:11 0.00010127
11 *19:16 *385:18 0
*RES
1 io_in[26] *19:11 1.215 
2 *19:11 *19:13 135.81 
3 *19:13 *19:15 4.5 
4 *19:15 *19:16 456.39 
5 *19:16 *19:18 4.5 
6 *19:18 *19:19 56.43 
7 *19:19 *419:io_in[26] 11.7 
*END

*D_NET *20 0.124984
*CONN
*P io_in[27] I
*I *419:io_in[27] I *D tiny_user_project
*CAP
1 io_in[27] 0.00113819
2 *419:io_in[27] 9.45207e-05
3 *20:11 0.0195025
4 *20:10 0.019408
5 *20:8 0.0418512
6 *20:7 0.0429894
*RES
1 io_in[27] *20:7 16.065 
2 *20:7 *20:8 417.87 
3 *20:8 *20:10 4.5 
4 *20:10 *20:11 180.63 
5 *20:11 *419:io_in[27] 9.81 
*END

*D_NET *21 0.104836
*CONN
*P io_in[28] I
*I *419:io_in[28] I *D tiny_user_project
*CAP
1 io_in[28] 0.000167681
2 *419:io_in[28] 0.000142241
3 *21:19 0.0127441
4 *21:18 0.0126018
5 *21:16 0.0330271
6 *21:15 0.0330271
7 *21:13 0.00647933
8 *21:11 0.00664701
*RES
1 io_in[28] *21:11 1.755 
2 *21:11 *21:13 62.91 
3 *21:13 *21:15 4.5 
4 *21:15 *21:16 329.49 
5 *21:16 *21:18 4.5 
6 *21:18 *21:19 129.33 
7 *21:19 *419:io_in[28] 10.62 
*END

*D_NET *22 0.0968149
*CONN
*P io_in[29] I
*I *419:io_in[29] I *D tiny_user_project
*CAP
1 io_in[29] 0.00215704
2 *419:io_in[29] 0.000230983
3 *22:11 0.0167762
4 *22:10 0.0165452
5 *22:8 0.0294742
6 *22:7 0.0316313
7 *22:8 *314:5 0
*RES
1 io_in[29] *22:7 26.865 
2 *22:7 *22:8 294.39 
3 *22:8 *22:10 4.5 
4 *22:10 *22:11 169.83 
5 *22:11 *419:io_in[29] 11.7 
*END

*D_NET *23 0.326517
*CONN
*P io_in[2] I
*I *419:io_in[2] I *D tiny_user_project
*CAP
1 io_in[2] 0.000239227
2 *419:io_in[2] 0.000276735
3 *23:11 0.0468192
4 *23:10 0.0465425
5 *23:8 0.0169953
6 *23:7 0.0172345
7 *419:io_in[2] *145:16 0.000880737
8 *419:io_in[2] *252:22 0.00034815
9 *419:io_in[2] *349:34 0.000901462
10 *419:io_in[2] *384:10 0.00190265
11 *23:8 *40:8 0.0468297
12 *23:8 *44:16 0.0338385
13 *23:11 *76:7 0
14 *23:11 *167:16 0
15 *23:11 *257:12 0.113709
*RES
1 io_in[2] *23:7 6.525 
2 *23:7 *23:8 261.45 
3 *23:8 *23:10 4.5 
4 *23:10 *23:11 572.67 
5 *23:11 *419:io_in[2] 15.615 
*END

*D_NET *24 0.331644
*CONN
*P io_in[30] I
*I *419:io_in[30] I *D tiny_user_project
*CAP
1 io_in[30] 0.000237175
2 *419:io_in[30] 0.0016245
3 *24:19 0.0055173
4 *24:18 0.0038928
5 *24:16 0.0366901
6 *24:15 0.0366901
7 *24:13 0.00793358
8 *24:11 0.00817075
9 *419:io_in[30] *79:12 0.000280576
10 *419:io_in[30] *156:19 0
11 *24:16 *342:13 0
12 *24:19 *419:wbs_adr_i[12] 0.000849652
13 *24:19 *47:23 0.00625838
14 *24:19 *58:13 0.140938
15 *24:19 *101:13 0.00870375
16 *24:19 *105:13 0.0179669
17 *24:19 *114:13 0.0558904
*RES
1 io_in[30] *24:11 2.295 
2 *24:11 *24:13 84.51 
3 *24:13 *24:15 4.5 
4 *24:15 *24:16 365.13 
5 *24:16 *24:18 4.5 
6 *24:18 *24:19 241.83 
7 *24:19 *419:io_in[30] 28.6161 
*END

*D_NET *25 0.0812618
*CONN
*P io_in[31] I
*I *419:io_in[31] I *D tiny_user_project
*CAP
1 io_in[31] 0.00201185
2 *419:io_in[31] 4.46606e-05
3 *25:19 0.0158565
4 *25:18 0.0158118
5 *25:16 0.0197157
6 *25:15 0.0217275
7 *419:io_in[31] *419:la_oenb[39] 0.000187842
8 *25:19 *419:la_oenb[39] 0.00590597
*RES
1 io_in[31] *25:15 25.425 
2 *25:15 *25:16 197.01 
3 *25:16 *25:18 4.5 
4 *25:18 *25:19 172.53 
5 *25:19 *419:io_in[31] 9.81 
*END

*D_NET *26 0.133604
*CONN
*P io_in[32] I
*I *419:io_in[32] I *D tiny_user_project
*CAP
1 io_in[32] 0.000310538
2 *419:io_in[32] 0.000944188
3 *26:19 0.0153433
4 *26:18 0.0143991
5 *26:16 0.022347
6 *26:15 0.022347
7 *26:13 0.0131635
8 *26:11 0.013474
9 *419:io_in[32] *283:11 0.000241667
10 *26:16 *363:15 0
11 *26:16 *385:18 0
12 *26:16 *412:26 0
13 *26:19 *172:14 0
14 *26:19 *263:16 0
15 *26:19 *276:16 0.00243883
16 *26:19 *333:16 0
17 *26:19 *347:16 0.00381872
18 *26:19 *372:16 0.00860014
19 *26:19 *400:19 0.0161764
*RES
1 io_in[32] *26:11 2.835 
2 *26:11 *26:13 138.51 
3 *26:13 *26:15 4.5 
4 *26:15 *26:16 221.67 
5 *26:16 *26:18 4.5 
6 *26:18 *26:19 227.79 
7 *26:19 *419:io_in[32] 22.8561 
*END

*D_NET *27 0.0632402
*CONN
*P io_in[33] I
*I *419:io_in[33] I *D tiny_user_project
*CAP
1 io_in[33] 0.00166505
2 *419:io_in[33] 7.56843e-05
3 *27:11 0.0174122
4 *27:10 0.0173365
5 *27:8 0.0125428
6 *27:7 0.0142079
*RES
1 io_in[33] *27:7 21.465 
2 *27:7 *27:8 125.19 
3 *27:8 *27:10 4.5 
4 *27:10 *27:11 175.23 
5 *27:11 *419:io_in[33] 9.81 
*END

*D_NET *28 0.061061
*CONN
*P io_in[34] I
*I *419:io_in[34] I *D tiny_user_project
*CAP
1 io_in[34] 0.00729079
2 *419:io_in[34] 0.000107104
3 *28:11 0.0105788
4 *28:10 0.0104717
5 *28:8 0.0106228
6 *28:7 0.0106228
7 *28:5 0.00729079
8 *419:io_in[34] *419:la_data_in[27] 3.52204e-05
9 *28:11 *419:la_data_in[27] 0.00404095
*RES
1 io_in[34] *28:5 76.365 
2 *28:5 *28:7 4.5 
3 *28:7 *28:8 105.93 
4 *28:8 *28:10 4.5 
5 *28:10 *28:11 115.83 
6 *28:11 *419:io_in[34] 10.26 
*END

*D_NET *29 0.235501
*CONN
*P io_in[35] I
*I *419:io_in[35] I *D tiny_user_project
*CAP
1 io_in[35] 0.00286926
2 *419:io_in[35] 0.00122299
3 *29:19 0.0253419
4 *29:18 0.0241189
5 *29:16 0.0220832
6 *29:15 0.0249525
7 *419:io_in[35] *192:18 0.00012434
8 *419:io_in[35] *227:32 2.48679e-05
9 *29:16 *107:13 2.04586e-05
10 *29:16 *348:13 0
11 *29:19 *68:13 0
12 *29:19 *72:15 0.00461281
13 *29:19 *78:15 0.000172246
14 *29:19 *110:13 0.00098811
15 *29:19 *122:16 0
16 *29:19 *158:14 0.00368333
17 *29:19 *357:14 0.000895154
18 *29:19 *411:13 0.124391
*RES
1 io_in[35] *29:15 34.605 
2 *29:15 *29:16 220.41 
3 *29:16 *29:18 4.5 
4 *29:18 *29:19 335.25 
5 *29:19 *419:io_in[35] 33.12 
*END

*D_NET *30 0.378641
*CONN
*P io_in[36] I
*I *419:io_in[36] I *D tiny_user_project
*CAP
1 io_in[36] 0.00010158